AquaCrop 7.2 (August 2024) - Output created on (date) : 24-09-2025   at (time) : 10:13:05
Evaluation of simulation results - Statistics
** Run number:3


  ASSESSMENT OF CANOPY COVER --------------------------------------
  No statistic analysis (insufficient data)
  ----------------------------------------------------------------


  ASSESSMENT OF BIOMASS PRODUCTION --------------------------------
              --------- Biomass (ton/ha) ---------
    Nr        Observed    +/- St Dev     Simulated    Date
  ----------------------------------------------------------------
     1           2.678        -9.000         2.250      25 May 2016
     2           3.628        -9.000         3.369       1 June 2016
     3           5.054        -9.000         4.319       9 June 2016
     4           4.817        -9.000         5.059      15 June 2016
     5           5.181        -9.000         5.134      16 June 2016
     6           5.435        -9.000         6.370      28 June 2016
     7           6.222        -9.000         7.178       5 July 2016
     8           6.609        -9.000         7.984      12 July 2016
     9           7.811        -9.000         8.874      20 July 2016
    10           8.149        -9.000         8.939      21 July 2016
    11           8.729        -9.000         9.856       2 August 2016
    12           9.086        -9.000        10.349      10 August 2016
    13           9.502        -9.000        10.648      16 August 2016
    14          10.304        -9.000        10.863      21 August 2016

  Valid observations/simulations sets (n) ....... :    14
  Average of observed Biomass production ........ :     6.658   ton/ha
  Average of simulated Biomass production ....... :     7.228   ton/ha

  Pearson Correlation Coefficient (r) ........... :     0.99
  Root mean square error (RMSE) ................. :     0.877   ton/ha
  Normalized root mean square error  CV(RMSE).... :    13.2   %
  Nash-Sutcliffe model efficiency coefficient (EF):     0.85
  Willmotts index of agreement (d) .............. :     0.97
  ----------------------------------------------------------------


  ASSESSMENT OF SOIL WATER CONTENT --------------------------------
  No statistic analysis (insufficient data)
  ----------------------------------------------------------------

