AquaCrop 7.3 (January 2026) - Output created on (date) : 27-01-2026   at (time) : 14:34:45

   Run:   1
   Day Month  Year   DAP Stage   WC(3.05)   Rain     Irri   Surf   Infilt   RO    Drain       CR    Zgwt       Ex       E     E/Ex     Trx       Tr  Tr/Trx    ETx      ET  ET/ETx      GD       Z     StExp  StSto  StSen StSalt StWeed   CC      CCw     StTr  Kc(Tr)     Trx       Tr      TrW  Tr/Trx   WP    Biomass     HI    Y(dry)  Y(fresh)  Brelative    WPet      Bin     Bout  WC(3.05) Wr(3.00)     Z       Wr    Wr(SAT)    Wr(FC)   Wr(exp)   Wr(sto)   Wr(sen)   Wr(PWP)    SaltIn    SaltOut   SaltUp   Salt(3.05)  SaltZ     Z       ECe    ECsw   StSalt  Zgwt    ECgw       WC01       WC 2       WC 3       WC 4       WC 5       WC 6       WC 7       WC 8       WC 9       WC10       WC11       WC12      ECe01      ECe 2      ECe 3      ECe 4      ECe 5      ECe 6      ECe 7      ECe 8      ECe 9      ECe10      ECe11      ECe12     Rain       ETo      Tmin      Tavg      Tmax      CO2
                                      mm      mm       mm     mm     mm     mm       mm       mm      m        mm       mm     %        mm       mm    %        mm      mm       %  degC-day     m       %      %      %      %      %      %       %       %       -        mm       mm       mm    %     g/m2    ton/ha      %    ton/ha   ton/ha       %       kg/m3   ton/ha   ton/ha      mm       mm       m       mm        mm        mm        mm        mm        mm         mm    ton/ha    ton/ha    ton/ha    ton/ha    ton/ha     m      dS/m    dS/m      %     m      dS/m       0.05       0.18       0.33       0.50       0.70       0.93       1.18       1.45       1.75       2.08       2.43       2.83       0.05       0.18       0.33       0.50       0.70       0.93       1.18       1.45       1.75       2.08       2.43       2.83       mm        mm     degC      degC      degC       ppm
    21     5  2014     1     1     881.0     0.1      0.0    0.0    0.1    0.0      0.0      0.0   -9.90      3.9      3.2     82      0.4      0.4   100      4.3     3.6      84     11.4    0.30     -9      0      0      0      0     5.4     5.4      0     0.10      0.4      0.4      0.4   100    16.1     0.017    -9.9    0.000    0.000     100        0.00    0.000    0.000     881.0    866.5    0.30    83.5     138.0      87.0      77.8      56.8      52.2      39.0    0.000     0.000     0.000     0.000     0.000    0.30     0.00    0.00      0   -9.90   -9.00       25.7       28.9       29.0       29.0       29.0       29.0       29.0       29.0       29.0       29.0       29.0       29.0        0.0        0.0        0.0        0.0        0.0        0.0        0.0        0.0        0.0        0.0        0.0        0.0      0.1       3.9      10.0      16.4      22.7    398.82
    22     5  2014     2     2     879.4     1.9      0.0    0.0    1.9    0.0      0.0      0.0   -9.90      3.2      3.1     97      0.4      0.4   100      3.5     3.4      98     11.1    0.34     -9      0      0      0      0     5.9     5.9      0     0.11      0.4      0.4      0.4   100    16.1     0.034     1.0    0.000    0.002      97        0.01    0.000    0.000     879.4    864.9    0.34    94.4     157.7      99.4      87.5      63.9      58.8      44.6    0.000     0.000     0.000     0.000     0.000    0.34     0.00    0.00      0   -9.90   -9.00       24.4       28.8       28.9       29.0       29.0       29.0       29.0       29.0       29.0       29.0       29.0       29.0        0.0        0.0        0.0        0.0        0.0        0.0        0.0        0.0        0.0        0.0        0.0        0.0      1.9       3.2      10.0      16.1      22.1    398.82
    23     5  2014     3     2     878.8     2.4      0.0    0.0    2.4    0.0      0.0      0.0   -9.90      2.8      2.7    100      0.3      0.3   100      3.1     3.1     100      9.4    0.38     -9      0      0      0      0     6.4     6.4      0     0.12      0.3      0.3      0.3   100    16.1     0.054     2.1    0.001    0.006      96        0.01    0.000    0.000     878.8    864.3    0.38   105.0     175.6     110.7      96.5      70.5      64.9      49.6    0.000     0.000     0.000     0.000     0.000    0.38     0.00    0.00      0   -9.90   -9.00       23.9       28.7       28.9       29.0       29.0       29.0       29.0       29.0       29.0       29.0       29.0       29.0        0.0        0.0        0.0        0.0        0.0        0.0        0.0        0.0        0.0        0.0        0.0        0.0      2.4       2.8      10.8      14.4      18.0    398.82
    24     5  2014     4     2     876.5     1.2      0.0    0.0    1.2    0.0      0.0      0.0   -9.90      3.2      3.0     94      0.4      0.4   100      3.6     3.4      94      9.8    0.42      0      0      0      0      0     7.0     7.0      0     0.13      0.4      0.4      0.4   100    16.1     0.075     3.7    0.003    0.014      94        0.02    0.000    0.000     876.5    862.0    0.42   113.3     192.3     121.2     106.9      78.1      71.8      54.3    0.000     0.000     0.000     0.000     0.000    0.42     0.00    0.00      0   -9.90   -9.00       22.0       28.6       28.8       29.0       29.0       29.0       29.0       29.0       29.0       29.0       29.0       29.0        0.0        0.0        0.0        0.0        0.0        0.0        0.0        0.0        0.0        0.0        0.0        0.0      1.2       3.3       8.8      14.8      20.7    398.82
    25     5  2014     5     2     874.1     1.3      0.0    0.0    1.3    0.0      0.0      0.0   -9.90      3.6      3.2     90      0.5      0.5   100      4.1     3.7      91     10.9    0.46      0      0      0      0      0     7.7     7.7      0     0.14      0.5      0.5      0.5   100    16.1     0.098     6.3    0.006    0.031      93        0.04    0.000    0.000     874.1    859.6    0.46   121.6     209.4     132.0     117.5      85.8      78.9      59.2    0.000     0.000     0.000     0.000     0.000    0.46     0.00    0.00      0   -9.90   -9.00       19.9       28.4       28.7       29.0       29.0       29.0       29.0       29.0       29.0       29.0       29.0       29.0        0.0        0.0        0.0        0.0        0.0        0.0        0.0        0.0        0.0        0.0        0.0        0.0      1.3       3.7       7.8      15.9      24.0    398.82
    26     5  2014     6     2     872.6     1.2      0.0    0.0    1.2    0.0      0.0      0.0   -9.90      2.7      2.2     80      0.5      0.5   100      3.2     2.7      83     13.2    0.50      0      0      0      0      0     8.7     8.7      0     0.16      0.5      0.5      0.5   100    16.1     0.124    10.4    0.013    0.065      91        0.06    0.000    0.000     872.6    858.1    0.50   132.2     228.5     144.0     125.9      91.9      84.6      64.6    0.000     0.000     0.000     0.000     0.000    0.50     0.00    0.00      0   -9.90   -9.00       18.8       28.3       28.6       28.9       29.0       29.0       29.0       29.0       29.0       29.0       29.0       29.0        0.0        0.0        0.0        0.0        0.0        0.0        0.0        0.0        0.0        0.0        0.0        0.0      1.2       2.9      13.0      18.2      23.4    398.82
    27     5  2014     7     2     872.0     2.4      0.0    0.0    2.4    0.0      0.0      0.0   -9.90      2.6      2.5     97      0.5      0.5   100      3.1     3.0      97     11.0    0.53      0      0      0      0      0     9.6     9.6      0     0.18      0.5      0.5      0.5   100    16.1     0.153    16.2    0.025    0.124      89        0.11    0.000    0.000     872.0    857.5    0.53   141.0     243.4     153.4     133.7      97.7      89.9      68.8    0.000     0.000     0.000     0.000     0.000    0.53     0.00    0.00      0   -9.90   -9.00       18.6       28.2       28.5       28.9       29.0       29.0       29.0       29.0       29.0       29.0       29.0       29.0        0.0        0.0        0.0        0.0        0.0        0.0        0.0        0.0        0.0        0.0        0.0        0.0      2.4       2.8       9.6      16.0      22.4    398.82
    28     5  2014     8     2     870.9     0.4      0.0    0.0    0.4    0.0      0.0      0.0   -9.90      1.8      1.2     63      0.4      0.4   100      2.2     1.5      69      6.9    0.55      0      0      0      0      0    10.2    10.2      6     0.19      0.4      0.4      0.4   100    16.1     0.182    22.9    0.042    0.208      88        0.17    0.000    0.000     870.9    856.4    0.55   145.5     252.3     159.1     136.0      99.4      91.7      71.3    0.000     0.000     0.000     0.000     0.000    0.55     0.00    0.00      0   -9.90   -9.00       17.7       28.2       28.5       28.9       29.0       29.0       29.0       29.0       29.0       29.0       29.0       29.0        0.0        0.0        0.0        0.0        0.0        0.0        0.0        0.0        0.0        0.0        0.0        0.0      0.4       2.0       7.7      11.9      16.1    398.82
    29     5  2014     9     2     869.0     0.0      0.0    0.0    0.0    0.0      0.0      0.0   -9.90      2.8      1.2     44      0.6      0.6   100      3.4     1.9      54      8.4    0.57      0      0      0      0      0    11.1    11.1      0     0.20      0.6      0.6      0.6   100    16.1     0.214    30.8    0.066    0.330      86        0.25    0.000    0.000     869.0    854.5    0.57   150.4     263.0     165.8     145.6     106.3      97.8      74.3    0.000     0.000     0.000     0.000     0.000    0.57     0.00    0.00      0   -9.90   -9.00       16.3       28.0       28.4       28.8       29.0       29.0       29.0       29.0       29.0       29.0       29.0       29.0        0.0        0.0        0.0        0.0        0.0        0.0        0.0        0.0        0.0        0.0        0.0        0.0      0.0       3.1       6.4      13.4      20.5    398.82
    30     5  2014    10     2     867.2     0.4      0.0    0.0    0.4    0.0      0.0      0.0   -9.90      3.3      1.4     44      0.8      0.8   100      4.1     2.2      55      9.3    0.60      0      0      0      0      0    12.0    12.0      0     0.22      0.8      0.8      0.8   100    16.1     0.250    38.6    0.096    0.482      85        0.34    0.000    0.000     867.2    852.7    0.60   155.6     274.3     172.9     154.0     112.4     103.3      77.5    0.000     0.000     0.000     0.000     0.000    0.60     0.00    0.00      0   -9.90   -9.00       15.1       27.9       28.2       28.7       29.0       29.0       29.0       29.0       29.0       29.0       29.0       29.0        0.0        0.0        0.0        0.0        0.0        0.0        0.0        0.0        0.0        0.0        0.0        0.0      0.4       3.7       8.3      14.3      20.3    398.82
    31     5  2014    11     2     865.1     0.2      0.0    0.0    0.2    0.0      0.0      0.0   -9.90      3.7      1.2     33      1.0      1.0   100      4.8     2.3      47      9.6    0.62      0      0      0      0      0    13.1    13.1      0     0.24      1.0      1.0      1.0   100    16.1     0.288    45.7    0.132    0.659      84        0.43    0.000    0.000     865.1    850.6    0.62   160.8     285.7     180.1     162.6     118.6     109.0      80.7    0.000     0.000     0.000     0.000     0.000    0.62     0.00    0.00      0   -9.90   -9.00       13.9       27.7       28.1       28.6       29.0       29.0       29.0       29.0       29.0       29.0       29.0       29.0        0.0        0.0        0.0        0.0        0.0        0.0        0.0        0.0        0.0        0.0        0.0        0.0      0.2       4.3       7.6      14.6      21.7    398.82
     1     6  2014    12     2     863.1     0.0      0.0    0.0    0.0    0.0      0.0      0.0   -9.90      3.7      0.9     24      1.1      1.1   100      4.9     2.0      42     10.4    0.65      1      0      0      0      0    14.4    14.4      0     0.26      1.1      1.1      1.1   100    16.1     0.330    52.1    0.172    0.860      82        0.52    0.000    0.000     863.1    848.6    0.65   166.3     297.6     187.6     169.8     123.9     113.7      84.1    0.000     0.000     0.000     0.000     0.000    0.65     0.00    0.00      0   -9.90   -9.00       13.0       27.3       27.9       28.5       29.0       29.0       29.0       29.0       29.0       29.0       29.0       29.0        0.0        0.0        0.0        0.0        0.0        0.0        0.0        0.0        0.0        0.0        0.0        0.0      0.0       4.4       7.8      15.4      23.0    398.82
     2     6  2014    13     2     861.2     0.5      0.0    0.0    0.5    0.0      0.0      0.0   -9.90      3.6      1.1     31      1.3      1.3   100      4.9     2.4      49     13.9    0.68      1      0      0      0      0    16.4    16.4      0     0.29      1.3      1.3      1.3   100    16.1     0.377    58.1    0.219    1.095      81        0.62    0.000    0.000     861.2    846.7    0.68   174.1     312.9     197.3     178.5     130.2     119.6      88.4    0.000     0.000     0.000     0.000     0.000    0.68     0.00    0.00      0   -9.90   -9.00       12.3       26.9       27.7       28.3       28.9       29.0       29.0       29.0       29.0       29.0       29.0       29.0        0.0        0.0        0.0        0.0        0.0        0.0        0.0        0.0        0.0        0.0        0.0        0.0      0.5       4.4      10.9      18.9      26.8    398.82
     3     6  2014    14     2     869.6    10.5      0.0    0.0   10.5    0.0      0.0      0.0   -9.90      1.5      1.5    100      0.6      0.6   100      2.1     2.1     100     13.6    0.71      0      0      0      0      0    18.5    18.5      0     0.33      0.6      0.6      0.6   100    16.1     0.430    63.2    0.271    1.357      79        0.73    0.000    0.000     869.6    855.1    0.71   191.6     327.5     206.4     176.1     128.7     118.7      92.5    0.000     0.000     0.000     0.000     0.000    0.71     0.00    0.00      0   -9.90   -9.00       21.2       26.8       27.6       28.2       28.9       29.0       29.0       29.0       29.0       29.0       29.0       29.0        0.0        0.0        0.0        0.0        0.0        0.0        0.0        0.0        0.0        0.0        0.0        0.0     10.5       1.9      14.9      18.6      22.3    398.82
     4     6  2014    15     2     868.5     1.8      0.0    0.0    1.8    0.0      0.0      0.0   -9.90      2.0      1.9     98      0.9      0.9   100      2.9     2.8      98     10.1    0.73      0      0      0      0      0    20.3    20.3      0     0.35      0.9      0.9      0.9   100    16.1     0.486    67.5    0.328    1.642      78        0.82    0.000    0.000     868.5    854.0    0.73   197.2     337.9     213.0     184.8     135.0     124.4      95.5    0.000     0.000     0.000     0.000     0.000    0.73     0.00    0.00      0   -9.90   -9.00       20.9       26.6       27.5       28.1       28.8       29.0       29.0       29.0       29.0       29.0       29.0       29.0        0.0        0.0        0.0        0.0        0.0        0.0        0.0        0.0        0.0        0.0        0.0        0.0      1.8       2.6       9.5      15.1      20.6    398.82
     5     6  2014    16     2     868.8     2.4      0.0    0.0    2.4    0.0      0.0      0.0   -9.90      1.4      1.4    100      0.7      0.7   100      2.1     2.1     100      8.3    0.75      0      0      0      0      0    21.9    21.9      0     0.38      0.7      0.7      0.7   100    16.1     0.547    71.1    0.389    1.946      76        0.92    0.000    0.000     868.8    854.3    0.75   202.8     346.4     218.4     186.3     136.2     125.6      97.9    0.000     0.000     0.000     0.000     0.000    0.75     0.00    0.00      0   -9.90   -9.00       21.8       26.5       27.4       28.1       28.8       29.0       29.0       29.0       29.0       29.0       29.0       29.0        0.0        0.0        0.0        0.0        0.0        0.0        0.0        0.0        0.0        0.0        0.0        0.0      2.4       1.9      10.5      13.3      16.2    398.82
     6     6  2014    17     2     865.9     0.2      0.0    0.0    0.2    0.0      0.0      0.0   -9.90      2.3      1.7     74      1.4      1.4   100      3.7     3.1      84     10.3    0.78      0      0      0      0      0    24.1    24.1      0     0.41      1.4      1.4      1.4   100    16.1     0.613    74.2    0.455    2.276      75        1.00    0.000    0.000     865.9    851.4    0.78   206.4     356.8     224.9     198.4     144.9     133.3     100.8    0.000     0.000     0.000     0.000     0.000    0.78     0.00    0.00      0   -9.90   -9.00       20.0       26.3       27.2       27.9       28.7       29.0       29.0       29.0       29.0       29.0       29.0       29.0        0.0        0.0        0.0        0.0        0.0        0.0        0.0        0.0        0.0        0.0        0.0        0.0      0.2       3.3       8.7      15.3      21.9    398.82
     7     6  2014    18     2     862.0     0.0      0.0    0.0    0.0    0.0      0.0      0.0   -9.90      3.2      1.7     53      2.2      2.2   100      5.5     3.9      72     13.8    0.80      0      0      0      0      0    27.3    27.3      0     0.46      2.2      2.2      2.2   100    16.1     0.687    77.0    0.529    2.644      74        1.07    0.000    0.000     862.0    847.5    0.80   210.9     370.2     233.4     213.6     155.8     143.0     104.6    0.000     0.000     0.000     0.000     0.000    0.80     0.00    0.00      0   -9.90   -9.00       17.9       25.9       26.9       27.6       28.5       29.0       29.0       29.0       29.0       29.0       29.0       29.0        0.0        0.0        0.0        0.0        0.0        0.0        0.0        0.0        0.0        0.0        0.0        0.0      0.0       4.9      10.4      18.8      27.1    398.82
     8     6  2014    19     2     859.1     0.0      0.0    0.0    0.0    0.0      0.0      0.0   -9.90      2.3      0.9     39      1.9      1.9   100      4.2     2.8      67     13.0    0.83      0      0      0      0      0    30.6    30.6      0     0.50      1.9      1.9      1.9   100    16.0     0.767    79.4    0.609    3.047      73        1.17    0.000    0.000     859.1    844.6    0.83   215.9     382.6     241.2     215.3     157.1     144.4     108.1    0.000     0.000     0.000     0.000     0.000    0.83     0.00    0.00      0   -9.90   -9.00       16.7       25.6       26.6       27.4       28.3       29.0       29.0       29.0       29.0       29.0       29.0       29.0        0.0        0.0        0.0        0.0        0.0        0.0        0.0        0.0        0.0        0.0        0.0        0.0      0.0       3.8      10.7      18.0      25.3    398.82
     9     6  2014    20     2     855.9     0.2      0.0    0.0    0.2    0.0      0.0      0.0   -9.90      2.6      1.0     37      2.5      2.5   100      5.1     3.5      68     14.4    0.86      1      0      0      0      0    33.8    33.8      0     0.55      2.5      2.5      2.5   100    16.0     0.855    81.5    0.697    3.485      72        1.25    0.000    0.000     855.9    841.4    0.86   221.2     396.1     249.7     227.0     165.6     152.0     111.9    0.000     0.000     0.000     0.000     0.000    0.86     0.00    0.00      0   -9.90   -9.00       15.5       25.3       26.3       27.2       28.1       28.9       29.0       29.0       29.0       29.0       29.0       29.0        0.0        0.0        0.0        0.0        0.0        0.0        0.0        0.0        0.0        0.0        0.0        0.0      0.2       4.6      14.8      19.4      24.0    398.82
    10     6  2014    21     2     852.9     1.1      0.0    0.0    1.1    0.0      0.0      0.0   -9.90      2.4      1.5     60      2.6      2.6   100      5.0     4.1      81     14.4    0.89      1      0      0      0      0    36.6    36.6      0     0.58      2.6      2.6      2.6   100    16.0     0.948    83.3    0.790    3.951      71        1.32    0.000    0.000     852.9    838.4    0.89   226.6     409.3     258.0     234.0     170.7     156.8     115.7    0.000     0.000     0.000     0.000     0.000    0.89     0.00    0.00      0   -9.90   -9.00       14.7       24.9       26.0       26.9       27.9       28.9       29.0       29.0       29.0       29.0       29.0       29.0        0.0        0.0        0.0        0.0        0.0        0.0        0.0        0.0        0.0        0.0        0.0        0.0      1.1       4.5      14.5      19.4      24.4    398.82
    11     6  2014    22     2     864.4    13.9      0.0    0.0   13.9    0.0      0.0      0.0   -9.90      1.1      1.1    100      1.3      1.3   100      2.4     2.4     100     10.8    0.91      0      0      0      0      0    38.5    38.5      0     0.61      1.3      1.3      1.3   100    16.0     1.045    84.9    0.887    4.437      71        1.43    0.000    0.000     864.4    849.9    0.91   244.3     419.0     264.1     226.4     165.5     152.5     118.4    0.000     0.000     0.000     0.000     0.000    0.91     0.00    0.00      0   -9.90   -9.00       27.4       24.7       25.8       26.8       27.8       28.8       29.0       29.0       29.0       29.0       29.0       29.0        0.0        0.0        0.0        0.0        0.0        0.0        0.0        0.0        0.0        0.0        0.0        0.0     13.9       2.1      12.8      15.8      18.8    398.82
    12     6  2014    23     2     882.4    20.4      0.0    0.0   19.3    1.1      0.0      0.0   -9.90      0.6      0.6    100      0.8      0.8   100      1.3     1.3     100     12.1    0.93      0      0      0      0      0    40.5    40.5      0     0.63      0.8      0.8      0.8   100    16.0     1.146    86.2    0.988    4.941      70        1.56    0.000    0.000     882.4    867.9    0.93   268.9     429.6     270.8     227.1     166.1     153.3     121.4    0.000     0.000     0.000     0.000     0.000    0.93     0.00    0.00      0   -9.90   -9.00       45.3       25.1       25.7       26.7       27.7       28.8       29.0       29.0       29.0       29.0       29.0       29.0        0.0        0.0        0.0        0.0        0.0        0.0        0.0        0.0        0.0        0.0        0.0        0.0     20.4       1.2      13.9      17.1      20.2    398.82
    13     6  2014    24     2     896.4    17.4      0.0    0.0   16.2    1.2      0.0      0.0   -9.90      0.9      0.9    100      1.2      1.2   100      2.1     2.1     100     13.4    0.96      0      0      0      0      0    42.4    42.4      0     0.65      1.2      1.2      1.2   100    16.0     1.250    87.4    1.092    5.462      70        1.66    0.000    0.000     896.4    881.9    0.96   290.3     441.3     278.2     237.3     173.5     159.9     124.7    0.000     0.000     0.000     0.000     0.000    0.96     0.00    0.00      0   -9.90   -9.00       44.2       29.2       29.1       28.8       27.6       28.8       29.0       29.0       29.0       29.0       29.0       29.0        0.0        0.0        0.0        0.0        0.0        0.0        0.0        0.0        0.0        0.0        0.0        0.0     17.4       1.9      15.1      18.4      21.7    398.82
    14     6  2014    25     2     888.6     3.8      0.0    0.0    3.8    0.0      8.7      0.0   -9.90      1.2      1.2    100      1.7      1.7   100      2.9     2.9     100      9.4    0.98      0      0      0      0      0    43.6    43.6      0     0.67      1.7      1.7      1.7   100    16.0     1.357    88.4    1.199    5.994      69        1.75    0.000    0.000     888.6    874.1    0.98   286.4     449.3     283.3     245.8     179.5     165.3     127.0    0.000     0.000     0.000     0.000     0.000    0.98     0.00    0.00      0   -9.90   -9.00       31.5       29.1       29.1       29.1       29.0       29.0       29.1       29.1       29.1       29.0       29.0       29.0        0.0        0.0        0.0        0.0        0.0        0.0        0.0        0.0        0.0        0.0        0.0        0.0      3.8       2.6      11.0      14.4      17.8    398.82
    15     6  2014    26     2     880.8     0.1      0.0    0.0    0.1    0.0      3.1      0.0   -9.90      2.0      1.8     91      3.0      3.0   100      4.9     4.8      96     10.3    1.00      0      0      0      0      0    44.8    44.8      0     0.68      3.0      3.0      3.0   100    15.9     1.465    89.2    1.307    6.536      69        1.78    0.000    0.000     880.8    866.3    1.00   284.8     458.0     288.7     261.3     190.6     175.1     129.4    0.000     0.000     0.000     0.000     0.000    1.00     0.00    0.00      0   -9.90   -9.00       27.0       28.7       28.7       28.8       28.8       28.9       29.0       29.0       29.0       29.0       29.0       29.0        0.0        0.0        0.0        0.0        0.0        0.0        0.0        0.0        0.0        0.0        0.0        0.0      0.1       4.4       8.9      15.3      21.7    398.82
    16     6  2014    27     2     877.1     0.2      0.0    0.0    0.2    0.0      0.3      0.0   -9.90      1.4      1.3     94      2.3      2.3   100      3.7     3.6      98     11.0    1.02      0      0      0      0      0    45.9    45.9      0     0.69      2.3      2.3      2.3   100    15.9     1.576    90.0    1.418    7.088      69        1.84    0.000    0.000     877.1    862.6    1.02   287.2     467.2     294.5     259.8     189.7     174.5     132.0    0.000     0.000     0.000     0.000     0.000    1.02     0.00    0.00      0   -9.90   -9.00       25.5       28.4       28.5       28.5       28.6       28.7       29.0       29.0       29.0       29.0       29.0       29.0        0.0        0.0        0.0        0.0        0.0        0.0        0.0        0.0        0.0        0.0        0.0        0.0      0.2       3.3      10.0      16.0      22.0    398.82
    17     6  2014    28     2     884.0    11.0      0.0    0.0   10.9    0.1      0.0      0.0   -9.90      1.5      1.5    100      2.6      2.6   100      4.1     4.1     100     14.2    1.04      0      0      0      0      0    47.3    47.3      0     0.71      2.6      2.6      2.6   100    15.9     1.688    90.6    1.530    7.651      69        1.89    0.000    0.000     884.0    869.5    1.04   301.4     478.9     301.9     268.2     195.8     180.0     135.4    0.000     0.000     0.000     0.000     0.000    1.04     0.00    0.00      0   -9.90   -9.00       34.6       28.1       28.2       28.3       28.4       28.6       29.0       29.0       29.0       29.0       29.0       29.0        0.0        0.0        0.0        0.0        0.0        0.0        0.0        0.0        0.0        0.0        0.0        0.0     11.0       3.6      11.9      19.2      26.6    398.82
    18     6  2014    29     2     883.8     4.1      0.0    0.0    4.1    0.0      0.0      0.0   -9.90      1.5      1.5    100      2.7      2.7   100      4.3     4.3     100     13.8    1.07      0      0      0      0      0    48.4    48.4      0     0.72      2.7      2.7      2.7   100    15.9     1.803    91.2    1.645    8.223      69        1.93    0.000    0.000     883.8    869.3    1.07   308.3     490.1     309.0     275.7     201.3     185.0     138.5    0.000     0.000     0.000     0.000     0.000    1.07     0.00    0.00      0   -9.90   -9.00       31.5       28.9       28.8       28.8       28.6       28.4       29.0       29.0       29.0       29.0       29.0       29.0        0.0        0.0        0.0        0.0        0.0        0.0        0.0        0.0        0.0        0.0        0.0        0.0      4.1       3.8      13.9      18.8      23.6    398.82
    19     6  2014    30     2     878.8     0.2      0.0    0.0    0.2    0.0      0.0      0.0   -9.90      1.9      1.7     92      3.4      3.4   100      5.3     5.1      97     10.9    1.08      0      0      0      0      0    49.2    49.2      0     0.73      3.4      3.4      3.4   100    15.8     1.918    91.8    1.760    8.801      69        1.95    0.000    0.000     878.8    864.3    1.08   308.9     498.8     314.5     286.5     209.0     191.8     141.0    0.000     0.000     0.000     0.000     0.000    1.08     0.00    0.00      0   -9.90   -9.00       27.1       28.7       28.7       28.7       28.8       28.3       29.0       29.0       29.0       29.0       29.0       29.0        0.0        0.0        0.0        0.0        0.0        0.0        0.0        0.0        0.0        0.0        0.0        0.0      0.2       4.7      11.0      15.9      20.8    398.82
    20     6  2014    31     2     874.4     0.1      0.0    0.0    0.1    0.0      0.0      0.0   -9.90      1.6      1.5     93      3.0      3.0   100      4.6     4.5      97      9.4    1.10      0      0      0      0      0    49.9    49.9      0     0.74      3.0      3.0      3.0   100    15.8     2.035    92.2    1.877    9.383      69        1.98    0.000    0.000     874.4    859.9    1.10   309.3     506.3     319.2     286.8     209.3     192.3     143.1    0.000     0.000     0.000     0.000     0.000    1.10     0.00    0.00      0   -9.90   -9.00       25.3       28.3       28.4       28.4       28.5       28.1       28.9       29.0       29.0       29.0       29.0       29.0        0.0        0.0        0.0        0.0        0.0        0.0        0.0        0.0        0.0        0.0        0.0        0.0      0.1       4.1       8.7      14.4      20.1    398.82
    21     6  2014    32     2     870.7     0.0      0.0    0.0    0.0    0.0      0.0      0.0   -9.90      1.4      1.0     73      2.7      2.7   100      4.1     3.7      91     11.8    1.12      0      0      0      0      0    50.6    50.6      0     0.75      2.7      2.7      2.7   100    15.8     2.152    92.7    1.994    9.970      69        2.02    0.000    0.000     870.7    856.2    1.12   311.4     515.5     325.0     288.7     210.8     193.8     145.7    0.000     0.000     0.000     0.000     0.000    1.12     0.00    0.00      0   -9.90   -9.00       24.0       28.0       28.1       28.2       28.3       27.9       28.9       29.0       29.0       29.0       29.0       29.0        0.0        0.0        0.0        0.0        0.0        0.0        0.0        0.0        0.0        0.0        0.0        0.0      0.0       3.6      12.0      16.8      21.5    398.82
    22     6  2014    33     2     866.1     0.0      0.0    0.0    0.0    0.0      0.0      0.0   -9.90      1.8      1.1     60      3.5      3.5   100      5.3     4.6      87     13.7    1.14      0      0      0      0      0    51.4    51.4      0     0.75      3.5      3.5      3.5   100    15.7     2.270    93.0    2.112   10.562      68        2.05    0.000    0.000     866.1    851.6    1.14   313.6     526.2     331.7     302.2     220.4     202.4     148.7    0.000     0.000     0.000     0.000     0.000    1.14     0.00    0.00      0   -9.90   -9.00       22.5       27.6       27.8       27.9       28.0       27.7       28.8       29.0       29.0       29.0       29.0       29.0        0.0        0.0        0.0        0.0        0.0        0.0        0.0        0.0        0.0        0.0        0.0        0.0      0.0       4.7      12.5      18.7      24.9    398.82
    23     6  2014    34     2     862.4     0.0      0.0    0.0    0.0    0.0      0.0      0.0   -9.90      1.5      0.7     49      3.0      3.0   100      4.5     3.8      83     12.7    1.16      0      0      0      0      0    52.0    52.0      0     0.76      3.0      3.0      3.0   100    15.7     2.389    93.4    2.231   11.157      68        2.09    0.000    0.000     862.4    847.9    1.16   316.1     535.9     337.8     302.9     221.1     203.1     151.4    0.000     0.000     0.000     0.000     0.000    1.16     0.00    0.00      0   -9.90   -9.00       21.4       27.3       27.4       27.6       27.8       27.5       28.8       29.0       29.0       29.0       29.0       29.0        0.0        0.0        0.0        0.0        0.0        0.0        0.0        0.0        0.0        0.0        0.0        0.0      0.0       4.0      11.5      17.7      23.9    398.82
    24     6  2014    35     2     890.0    30.4      0.0    0.0   29.0    1.4      0.0      0.0   -9.90      0.4      0.4    100      0.9      0.9   100      1.4     1.4     100     14.4    1.19      0      0      0      0      0    52.6    52.6      0     0.77      0.9      0.9      0.9   100    15.6     2.509    93.7    2.351   11.756      68        2.17    0.000    0.000     890.0    875.5    1.19   350.6     546.8     344.7     289.1     211.4     195.2     154.5    0.000     0.000     0.000     0.000     0.000    1.19     0.00    0.00      0   -9.90   -9.00       45.5       30.1       27.3       27.5       27.7       27.5       28.7       29.0       29.0       29.0       29.0       29.0        0.0        0.0        0.0        0.0        0.0        0.0        0.0        0.0        0.0        0.0        0.0        0.0     30.4       1.2      16.3      19.4      22.4    398.82
    25     6  2014    36     2     887.1     3.4      0.0    0.0    3.4    0.0      3.1      0.0   -9.90      1.0      1.0    100      2.2      2.2   100      3.2     3.2     100     14.5    1.21      0      0      0      0      0    53.1    53.1      0     0.77      2.2      2.2      2.2   100    15.6     2.630    94.0    2.471   12.357      68        2.22    0.000    0.000     887.1    872.6    1.21   354.0     557.6     351.6     306.5     223.9     206.1     157.6    0.000     0.000     0.000     0.000     0.000    1.21     0.00    0.00      0   -9.90   -9.00       31.2       29.1       29.1       29.1       29.0       28.9       29.0       29.0       29.0       29.0       29.0       29.0        0.0        0.0        0.0        0.0        0.0        0.0        0.0        0.0        0.0        0.0        0.0        0.0      3.4       2.8      16.7      19.5      22.3    398.82
    26     6  2014    37     2     880.5     0.2      0.0    0.0    0.2    0.0      1.9      0.0   -9.90      1.6      1.5     93      3.5      3.5   100      5.1     5.0      98     15.2    1.24      0      0      0      0      0    53.6    53.6      0     0.78      3.5      3.5      3.5   100    15.5     2.750    94.3    2.592   12.961      68        2.23    0.000    0.000     880.5    866.0    1.24   354.6     568.9     358.7     325.3     237.3     217.9     160.8    0.000     0.000     0.000     0.000     0.000    1.24     0.00    0.00      0   -9.90   -9.00       27.4       28.7       28.8       28.7       28.8       28.8       28.9       29.0       29.0       29.0       29.0       29.0        0.0        0.0        0.0        0.0        0.0        0.0        0.0        0.0        0.0        0.0        0.0        0.0      0.2       4.5      15.4      20.2      25.1    398.82
    27     6  2014    38     2     874.7     0.4      0.0    0.0    0.4    0.0      0.1      0.0   -9.90      1.9      1.8     94      4.3      4.3   100      6.2     6.1      98     16.9    1.26      0      0      0      0      0    54.1    54.1      0     0.78      4.3      4.3      4.3   100    15.5     2.871    94.5    2.713   13.567      68        2.21    0.000    0.000     874.7    860.2    1.26   356.7     581.2     366.4     339.9     247.8     227.2     164.3    0.000     0.000     0.000     0.000     0.000    1.26     0.00    0.00      0   -9.90   -9.00       25.5       28.3       28.3       28.4       28.5       28.5       28.7       29.0       29.0       29.0       29.0       29.0        0.0        0.0        0.0        0.0        0.0        0.0        0.0        0.0        0.0        0.0        0.0        0.0      0.4       5.5      13.7      22.4      31.0    398.82
    28     6  2014    39     2     869.9     0.2      0.0    0.0    0.2    0.0      0.0      0.0   -9.90      1.5      1.4     92      3.5      3.5   100      5.1     5.0      98     15.1    1.29      0      0      0      0      0    54.5    54.5      0     0.79      3.5      3.5      3.5   100    15.4     2.993    94.7    2.835   14.173      68        2.22    0.000    0.000     869.9    855.4    1.29   358.8     592.1     373.3     338.5     247.0     226.8     167.3    0.000     0.000     0.000     0.000     0.000    1.29     0.00    0.00      0   -9.90   -9.00       23.9       27.9       28.0       28.1       28.2       28.3       28.5       29.0       29.0       29.0       29.0       29.0        0.0        0.0        0.0        0.0        0.0        0.0        0.0        0.0        0.0        0.0        0.0        0.0      0.2       4.5      13.4      20.1      26.7    398.82
    29     6  2014    40     2     864.8     0.3      0.0    0.0    0.3    0.0      0.0      0.0   -9.90      1.7      1.6     94      3.9      3.9   100      5.5     5.4      98     18.0    1.32      0      0      0      0      0    54.9    54.9      0     0.79      3.9      3.9      3.9   100    15.4     3.114    94.9    2.956   14.780      68        2.22    0.000    0.000     864.8    850.3    1.32   361.7     604.9     381.4     349.0     254.6     233.6     171.0    0.000     0.000     0.000     0.000     0.000    1.32     0.00    0.00      0   -9.90   -9.00       22.2       27.5       27.7       27.7       27.9       28.1       28.3       29.0       29.0       29.0       29.0       29.0        0.0        0.0        0.0        0.0        0.0        0.0        0.0        0.0        0.0        0.0        0.0        0.0      0.3       4.9      17.2      23.0      28.8    398.82
    30     6  2014    41     2     860.5     0.2      0.0    0.0    0.2    0.0      0.0      0.0   -9.90      1.4      1.2     88      3.3      3.3   100      4.7     4.6      96     19.8    1.35      0      0      0      0      0    55.2    55.2      0     0.79      3.3      3.3      3.3   100    15.3     3.236    95.1    3.078   15.388      68        2.24    0.000    0.000     860.5    846.0    1.35   366.2     618.9     390.2     351.4     256.4     235.6     174.9    0.000     0.000     0.000     0.000     0.000    1.35     0.00    0.00      0   -9.90   -9.00       20.8       27.2       27.3       27.5       27.7       27.9       28.2       29.0       29.0       29.0       29.0       29.0        0.0        0.0        0.0        0.0        0.0        0.0        0.0        0.0        0.0        0.0        0.0        0.0      0.2       4.2      20.6      24.8      29.0    398.82
     1     7  2014    42     2     857.0     1.2      0.0    0.0    1.2    0.0      0.0      0.0   -9.90      1.4      1.3     96      3.3      3.3   100      4.7     4.7      99     19.4    1.37      0      0      0      0      0    55.5    55.5      0     0.80      3.3      3.3      3.3   100    15.3     3.357    95.3    3.199   15.994      68        2.25    0.000    0.000     857.0    842.5    1.37   371.3     632.4     398.7     359.1     262.0     240.7     178.7    0.000     0.000     0.000     0.000     0.000    1.37     0.00    0.00      0   -9.90   -9.00       20.3       26.9       27.0       27.2       27.4       27.7       28.0       28.9       29.0       29.0       29.0       29.0        0.0        0.0        0.0        0.0        0.0        0.0        0.0        0.0        0.0        0.0        0.0        0.0      1.2       4.2      19.6      24.4      29.2    398.82
     2     7  2014    43     2     855.2     2.6      0.0    0.0    2.6    0.0      0.0      0.0   -9.90      1.3      1.3    100      3.1      3.1   100      4.4     4.4     100     17.6    1.40      0      0      0      0      0    55.7    55.7      0     0.80      3.1      3.1      3.1   100    15.2     3.478    95.5    3.320   16.600      68        2.27    0.000    0.000     855.2    840.7    1.40   377.2     644.4     406.3     363.4     265.2     243.8     182.1    0.000     0.000     0.000     0.000     0.000    1.40     0.00    0.00      0   -9.90   -9.00       21.3       26.6       26.8       26.9       27.2       27.5       27.9       28.9       29.0       29.0       29.0       29.0        0.0        0.0        0.0        0.0        0.0        0.0        0.0        0.0        0.0        0.0        0.0        0.0      2.6       3.9      17.8      22.6      27.3    398.82
     3     7  2014    44     2     854.9     2.5      0.0    0.0    2.5    0.0      0.0      0.0   -9.90      0.8      0.8    100      2.0      2.0   100      2.8     2.8     100     12.9    1.42      0      0      0      0      0    55.9    55.9      0     0.80      2.0      2.0      2.0   100    15.1     3.599    95.6    3.441   17.205      68        2.30    0.000    0.000     854.9    840.4    1.42   382.4     653.2     411.8     356.4     260.4     239.9     184.6    0.000     0.000     0.000     0.000     0.000    1.42     0.00    0.00      0   -9.90   -9.00       22.8       26.4       26.6       26.8       27.1       27.3       27.8       28.9       29.0       29.0       29.0       29.0        0.0        0.0        0.0        0.0        0.0        0.0        0.0        0.0        0.0        0.0        0.0        0.0      2.5       2.5      13.1      17.9      22.8    398.82
     4     7  2014    45     2     851.6     0.4      0.0    0.0    0.4    0.0      0.0      0.0   -9.90      1.1      1.0     93      2.6      2.6   100      3.7     3.6      98     11.8    1.44     -9      0      0      0      0    56.0    56.0      0     0.80      2.6      2.6      2.6   100    15.1     3.719    95.8    3.561   17.807      68        2.33    0.000    0.000     851.6    837.1    1.44   384.2     661.2     416.8     367.7     268.5     247.0     186.9    0.000     0.000     0.000     0.000     0.000    1.44     0.00    0.00      0   -9.90   -9.00       22.0       26.2       26.4       26.6       26.9       27.2       27.6       28.8       29.0       29.0       29.0       29.0        0.0        0.0        0.0        0.0        0.0        0.0        0.0        0.0        0.0        0.0        0.0        0.0      0.4       3.3      11.9      16.8      21.6    398.82
     5     7  2014    46     2     847.0     0.1      0.0    0.0    0.1    0.0      0.0      0.0   -9.90      1.5      1.1     76      3.6      3.6   100      5.1     4.7      93     13.1    1.46     -9      0      0      0      0    56.1    56.1      0     0.80      3.6      3.6      3.6   100    15.0     3.840    95.9    3.681   18.407      68        2.33    0.000    0.000     847.0    832.5    1.46   385.3     670.0     422.4     383.1     279.5     256.6     189.3    0.000     0.000     0.000     0.000     0.000    1.46     0.00    0.00      0   -9.90   -9.00       20.6       25.8       26.1       26.3       26.6       27.0       27.5       28.7       29.0       29.0       29.0       29.0        0.0        0.0        0.0        0.0        0.0        0.0        0.0        0.0        0.0        0.0        0.0        0.0      0.1       4.5      11.4      18.1      24.9    398.82
     6     7  2014    47     2     843.4     1.0      0.0    0.0    1.0    0.0      0.0      0.0   -9.90      1.4      1.2     90      3.4      3.4   100      4.7     4.6      97     15.1    1.48     -9      0      0      0      0    56.2    56.2      0     0.80      3.4      3.4      3.4   100    14.9     3.959    96.0    3.801   19.005      68        2.34    0.000    0.000     843.4    828.9    1.48   388.0     680.0     428.7     386.1     281.8     258.8     192.2    0.000     0.000     0.000     0.000     0.000    1.48     0.00    0.00      0   -9.90   -9.00       20.0       25.5       25.8       26.0       26.4       26.8       27.3       28.6       29.0       29.0       29.0       29.0        0.0        0.0        0.0        0.0        0.0        0.0        0.0        0.0        0.0        0.0        0.0        0.0      1.0       4.2      14.1      20.1      26.0    398.82
     7     7  2014    48     2     847.3     5.6      0.0    0.0    5.6    0.0      0.0      0.0   -9.90      0.5      0.5    100      1.2      1.2   100      1.7     1.7     100     15.1    1.50     -9      0      0      0      0    56.3    56.3      0     0.80      1.2      1.2      1.2   100    14.8     4.078    96.1    3.920   19.601      68        2.39    0.000    0.000     847.3    832.8    1.50   398.1     689.9     434.9     367.5     268.7     247.9     195.0    0.000     0.000     0.000     0.000     0.000    1.50     0.00    0.00      0   -9.90   -9.00       25.0       25.4       25.7       25.9       26.3       26.7       27.2       28.6       29.0       29.0       29.0       29.0        0.0        0.0        0.0        0.0        0.0        0.0        0.0        0.0        0.0        0.0        0.0        0.0      5.6       1.5      15.9      20.1      24.2    398.82
     8     7  2014    49     2     860.5    17.8      0.0    0.0   17.4    0.4      0.0      0.0   -9.90      1.2      1.2    100      3.0      3.0   100      4.2     4.2     100     16.1    1.52     -9      0      0      0      0    56.4    56.4      0     0.80      3.0      3.0      3.0   100    14.8     4.197    96.2    4.039   20.194      68        2.40    0.000    0.000     860.5    846.0    1.52   417.9     700.4     441.6     393.2     287.0     263.8     197.9    0.000     0.000     0.000     0.000     0.000    1.52     0.00    0.00      0   -9.90   -9.00       40.9       25.1       25.4       25.7       26.1       26.5       27.1       28.5       29.0       29.0       29.0       29.0        0.0        0.0        0.0        0.0        0.0        0.0        0.0        0.0        0.0        0.0        0.0        0.0     17.8       3.7      15.3      21.1      26.9    398.82
     9     7  2014    50     2     860.1     3.1      0.0    0.0    3.1    0.0      0.0      0.0   -9.90      1.0      1.0    100      2.5      2.5   100      3.5     3.5     100     12.3    1.54     -9      0      0      0      0    56.5    56.5      0     0.80      2.5      2.5      2.5   100    14.7     4.315    96.3    4.157   20.784      68        2.42    0.000    0.000     860.1    845.6    1.54   422.5     708.4     446.6     392.1     286.3     263.5     200.2    0.000     0.000     0.000     0.000     0.000    1.54     0.00    0.00      0   -9.90   -9.00       31.1       29.0       28.9       25.6       25.9       26.4       27.0       28.4       29.0       29.0       29.0       29.0        0.0        0.0        0.0        0.0        0.0        0.0        0.0        0.0        0.0        0.0        0.0        0.0      3.1       3.1      13.4      17.3      21.2    398.82
    10     7  2014    51     2     855.2     0.0      0.0    0.0    0.0    0.0      0.0      0.0   -9.90      1.4      1.4    100      3.5      3.5   100      5.0     5.0     100     10.9    1.56     -9      0      0      0      0    56.5    56.5      0     0.80      3.5      3.5      3.5   100    14.6     4.432    96.4    4.274   21.371      68        2.42    0.000    0.000     855.2    840.7    1.56   422.0     715.4     451.0     408.1     297.8     273.4     202.2    0.000     0.000     0.000     0.000     0.000    1.56     0.00    0.00      0   -9.90   -9.00       27.4       28.8       28.8       26.1       25.7       26.2       26.8       28.3       29.0       29.0       29.0       29.0        0.0        0.0        0.0        0.0        0.0        0.0        0.0        0.0        0.0        0.0        0.0        0.0      0.0       4.4      10.7      15.9      21.1    398.82
    11     7  2014    52     2     850.1     0.0      0.0    0.0    0.0    0.0      0.0      0.0   -9.90      1.4      1.4     98      3.6      3.6   100      5.1     5.0      99     13.2    1.57     -9      0      0      0      0    56.6    56.6      0     0.80      3.6      3.6      3.6   100    14.5     4.549    96.5    4.391   21.954      68        2.42    0.000    0.000     850.1    835.6    1.57   422.2     723.9     456.4     413.9     301.9     277.2     204.6    0.000     0.000     0.000     0.000     0.000    1.57     0.00    0.00      0   -9.90   -9.00       25.7       28.5       28.5       25.8       25.5       26.0       26.6       28.2       29.0       29.0       29.0       29.0        0.0        0.0        0.0        0.0        0.0        0.0        0.0        0.0        0.0        0.0        0.0        0.0      0.0       4.5      12.2      18.2      24.2    398.82
    12     7  2014    53     2     845.5     0.0      0.0    0.0    0.0    0.0      0.0      0.0   -9.90      1.4      1.1     80      3.5      3.5   100      4.8     4.6      94     14.6    1.59     -9      0      0      0      0    56.6    56.6      0     0.80      3.5      3.5      3.5   100    14.4     4.665    96.6    4.507   22.534      68        2.42    0.000    0.000     845.5    831.0    1.59   423.3     733.1     462.2     417.2     304.5     279.6     207.2    0.000     0.000     0.000     0.000     0.000    1.59     0.00    0.00      0   -9.90   -9.00       24.2       28.2       28.2       25.6       25.2       25.7       26.4       28.1       29.0       29.0       29.0       29.0        0.0        0.0        0.0        0.0        0.0        0.0        0.0        0.0        0.0        0.0        0.0        0.0      0.0       4.3      13.0      19.6      26.1    398.82
    13     7  2014    54     2     858.5    14.7      0.0    0.0   14.5    0.2      0.0      0.0   -9.90      0.4      0.4    100      1.1      1.1   100      1.6     1.6     100     14.7    1.61     -9      0      0      0      0    56.6    56.6      0     0.80      1.1      1.1      1.1   100    14.3     4.780    96.7    4.622   23.111      67        2.46    0.000    0.000     858.5    844.0    1.61   442.0     742.4     468.0     394.5     288.5     266.1     209.8    0.000     0.000     0.000     0.000     0.000    1.61     0.00    0.00      0   -9.90   -9.00       38.2       28.1       28.1       25.5       25.2       25.7       26.4       28.0       29.0       29.0       29.0       29.0        0.0        0.0        0.0        0.0        0.0        0.0        0.0        0.0        0.0        0.0        0.0        0.0     14.7       1.4      16.0      19.7      23.4    398.82
    14     7  2014    55     2     856.0     1.6      0.0    0.0    1.6    0.0      0.0      0.0   -9.90      2.4      2.4     99      1.7      1.7   100      4.1     4.1      99     13.6    1.63      0      0      0      0      0    28.3    28.3      0     0.47      1.7      1.7      1.7   100    14.3     4.848    96.7    4.690   23.448      67        2.44    0.000    0.000     856.0    841.5    1.63   444.9     750.9     473.4     421.5     307.7     282.8     212.2    0.000     0.000     0.000     0.000     0.000    1.63     0.00    0.00      0   -9.90   -9.00       28.2       29.2       29.1       28.2       25.0       25.6       26.3       27.9       29.0       29.0       29.0       29.0        0.0        0.0        0.0        0.0        0.0        0.0        0.0        0.0        0.0        0.0        0.0        0.0      1.6       3.7      12.5      18.6      24.6    398.82
    15     7  2014    56     2     856.9     3.0      0.0    0.0    3.0    0.0      0.0      0.0   -9.90      1.1      1.1    100      1.0      1.0   100      2.1     2.1     100     13.7    1.65      0      0      0      0      0    31.7    31.7      0     0.52      1.0      1.0      1.0   100    14.2     4.921    96.8    4.763   23.816      66        2.45    0.000    0.000     856.9    842.4    1.65   451.2     759.4     478.8     408.5     298.6     275.3     214.6    0.000     0.000     0.000     0.000     0.000    1.65     0.00    0.00      0   -9.90   -9.00       30.0       28.9       28.9       28.3       25.0       25.5       26.2       27.9       29.0       29.0       29.0       29.0        0.0        0.0        0.0        0.0        0.0        0.0        0.0        0.0        0.0        0.0        0.0        0.0      3.0       1.9      14.6      18.7      22.8    398.82
    16     7  2014    57     2     854.6     1.4      0.0    0.0    1.4    0.0      0.0      0.0   -9.90      1.9      1.9     99      1.8      1.8   100      3.7     3.7     100     11.9    1.67      0      0      0      0      0    34.3    34.3      0     0.55      1.8      1.8      1.8   100    14.2     4.999    96.8    4.841   24.207      66        2.45    0.000    0.000     854.6    840.1    1.67   453.6     766.8     483.4     426.4     311.4     286.4     216.7    0.000     0.000     0.000     0.000     0.000    1.67     0.00    0.00      0   -9.90   -9.00       28.5       28.9       28.9       28.4       24.9       25.4       26.1       27.8       29.0       29.0       29.0       29.0        0.0        0.0        0.0        0.0        0.0        0.0        0.0        0.0        0.0        0.0        0.0        0.0      1.4       3.3      12.6      16.9      21.2    398.82
    17     7  2014    58     2     851.1     0.2      0.0    0.0    0.2    0.0      0.0      0.0   -9.90      1.8      1.7     92      2.0      2.0   100      3.8     3.7      96     11.6    1.68      0      0      0      0      0    36.5    36.5      0     0.58      2.0      2.0      2.0   100    14.1     5.081    96.9    4.923   24.617      65        2.44    0.000    0.000     851.1    836.6    1.68   454.6     773.9     487.9     431.4     315.0     289.7     218.7    0.000     0.000     0.000     0.000     0.000    1.68     0.00    0.00      0   -9.90   -9.00       26.8       28.7       28.7       28.3       24.7       25.3       26.0       27.7       29.0       29.0       29.0       29.0        0.0        0.0        0.0        0.0        0.0        0.0        0.0        0.0        0.0        0.0        0.0        0.0      0.2       3.4      11.6      16.6      21.6    398.82
    18     7  2014    59     2     846.8     0.5      0.0    0.0    0.5    0.0      0.0      0.0   -9.90      2.2      2.1     94      2.7      2.7   100      4.9     4.8      97     14.1    1.70      0      0      0      0      0    39.0    39.0      0     0.61      2.7      2.7      2.7   100    14.0     5.167    96.9    5.009   25.046      65        2.43    0.000    0.000     846.8    832.3    1.70   455.8     782.6     493.4     446.4     325.7     299.1     221.2    0.000     0.000     0.000     0.000     0.000    1.70     0.00    0.00      0   -9.90   -9.00       25.0       28.5       28.5       28.1       24.6       25.2       25.9       27.6       28.9       29.0       29.0       29.0        0.0        0.0        0.0        0.0        0.0        0.0        0.0        0.0        0.0        0.0        0.0        0.0      0.5       4.4      11.9      19.1      26.3    398.82
    19     7  2014    60     2     843.1     0.3      0.0    0.0    0.3    0.0      0.0      0.0   -9.90      1.8      1.7     94      2.4      2.4   100      4.2     4.0      97     13.6    1.72      0      0      0      0      0    41.1    41.1      0     0.64      2.4      2.4      2.4   100    13.9     5.256    97.0    5.098   25.490      64        2.42    0.000    0.000     843.1    828.6    1.72   457.4     790.9     498.6     443.9     324.1     297.9     223.5    0.000     0.000     0.000     0.000     0.000    1.72     0.00    0.00      0   -9.90   -9.00       23.4       28.3       28.4       28.0       24.4       25.0       25.8       27.5       28.9       29.0       29.0       29.0        0.0        0.0        0.0        0.0        0.0        0.0        0.0        0.0        0.0        0.0        0.0        0.0      0.3       3.7      12.5      18.6      24.8    398.82
    20     7  2014    61     2     840.5     1.1      0.0    0.0    1.1    0.0      0.0      0.0   -9.90      1.5      1.5    100      2.2      2.2   100      3.7     3.7     100     15.6    1.74      0      0      0      0      0    43.2    43.2      0     0.66      2.2      2.2      2.2   100    13.9     5.348    97.0    5.190   25.949      64        2.43    0.000    0.000     840.5    826.0    1.74   460.7     800.3     504.5     445.0     325.0     298.9     226.2    0.000     0.000     0.000     0.000     0.000    1.74     0.00    0.00      0   -9.90   -9.00       22.8       28.2       28.2       27.8       24.3       24.9       25.7       27.5       28.9       29.0       29.0       29.0        0.0        0.0        0.0        0.0        0.0        0.0        0.0        0.0        0.0        0.0        0.0        0.0      1.1       3.3      16.1      20.6      25.0    398.82
    21     7  2014    62     2     836.4     0.2      0.0    0.0    0.2    0.0      0.0      0.0   -9.90      1.7      1.6     92      2.7      2.7   100      4.4     4.3      97     15.9    1.76      0      0      0      0      0    45.1    45.1      0     0.68      2.7      2.7      2.7   100    13.8     5.442    97.1    5.284   26.420      64        2.42    0.000    0.000     836.4    821.9    1.76   462.8     809.9     510.6     456.7     333.3     306.3     228.9    0.000     0.000     0.000     0.000     0.000    1.76     0.00    0.00      0   -9.90   -9.00       21.2       28.0       28.0       27.6       24.1       24.8       25.6       27.3       28.8       29.0       29.0       29.0        0.0        0.0        0.0        0.0        0.0        0.0        0.0        0.0        0.0        0.0        0.0        0.0      0.2       3.9      15.6      20.9      26.3    398.82
    22     7  2014    63     2     832.4     0.0      0.0    0.0    0.0    0.0      0.0      0.0   -9.90      1.7      1.2     72      2.8      2.8   100      4.5     4.0      89     17.4    1.78      0      0      0      0      0    46.8    46.8      0     0.70      2.8      2.8      2.8   100    13.7     5.538    97.1    5.380   26.901      64        2.42    0.000    0.000     832.4    817.9    1.78   465.3     820.3     517.1     463.6     338.4     310.9     231.8    0.000     0.000     0.000     0.000     0.000    1.78     0.00    0.00      0   -9.90   -9.00       19.8       27.7       27.8       27.4       23.9       24.6       25.4       27.2       28.7       29.0       29.0       29.0        0.0        0.0        0.0        0.0        0.0        0.0        0.0        0.0        0.0        0.0        0.0        0.0      0.0       4.0      16.7      22.4      28.2    398.82
    23     7  2014    64     2     833.7     4.6      0.0    0.0    4.6    0.0      0.0      0.0   -9.90      1.2      1.2    100      2.1      2.1   100      3.3     3.3     100     13.6    1.80      0      0      0      0      0    48.0    48.0      0     0.72      2.1      2.1      2.1   100    13.6     5.636    97.2    5.478   27.388      63        2.43    0.000    0.000     833.7    819.2    1.80   471.7     828.3     522.2     456.3     333.3     306.8     234.1    0.000     0.000     0.000     0.000     0.000    1.80     0.00    0.00      0   -9.90   -9.00       23.0       27.6       27.7       27.3       23.8       24.5       25.3       27.1       28.7       29.0       29.0       29.0        0.0        0.0        0.0        0.0        0.0        0.0        0.0        0.0        0.0        0.0        0.0        0.0      4.6       2.9      13.5      18.6      23.6    398.82
    24     7  2014    65     2     831.4     2.5      0.0    0.0    2.5    0.0      0.0      0.0   -9.90      1.7      1.7    100      3.1      3.1   100      4.8     4.8     100     11.6    1.82      0      0      0      0      0    48.9    48.9      0     0.73      3.1      3.1      3.1   100    13.5     5.731    97.2    5.573   27.867      63        2.42    0.000    0.002     831.4    816.9    1.82   473.7     835.1     526.5     475.3     346.8     318.5     236.0    0.000     0.000     0.000     0.000     0.000    1.82     0.00    0.00      0   -9.90   -9.00       23.6       27.4       27.4       27.1       23.6       24.3       25.2       27.0       28.6       29.0       29.0       29.0        0.0        0.0        0.0        0.0        0.0        0.0        0.0        0.0        0.0        0.0        0.0        0.0      2.5       4.3      10.6      16.6      22.6    398.82
    25     7  2014    66     2     827.9     0.6      0.0    0.0    0.6    0.0      0.0      0.0   -9.90      1.4      1.4     98      2.7      2.7   100      4.2     4.1      99     13.4    1.83      0      0      0      0      0    49.9    49.9      0     0.74      2.7      2.7      2.7   100    13.4     5.825    97.3    5.667   28.337      63        2.42    0.000    0.005     827.9    813.4    1.83   475.1     843.0     531.5     473.2     345.4     317.6     238.2    0.000     0.000     0.000     0.000     0.000    1.83     0.00    0.00      0   -9.90   -9.00       22.6       27.2       27.2       26.9       23.5       24.2       25.1       26.9       28.6       29.0       29.0       29.0        0.0        0.0        0.0        0.0        0.0        0.0        0.0        0.0        0.0        0.0        0.0        0.0      0.6       3.7      12.6      18.4      24.3    398.82
    26     7  2014    67     2     825.3     0.9      0.0    0.0    0.9    0.0      0.0      0.0   -9.90      1.2      1.2     98      2.3      2.3   100      3.5     3.5      99     14.1    1.85      0      0      0      0      0    50.7    50.7      0     0.75      2.3      2.3      2.3   100    13.3     5.917    97.3    5.759   28.797      63        2.42    0.000    0.007     825.3    810.8    1.85   477.7     851.3     536.7     471.2     344.1     316.6     240.6    0.000     0.000     0.000     0.000     0.000    1.85     0.00    0.00      0   -9.90   -9.00       22.1       27.0       27.1       26.8       23.3       24.0       24.9       26.8       28.5       29.0       29.0       29.0        0.0        0.0        0.0        0.0        0.0        0.0        0.0        0.0        0.0        0.0        0.0        0.0      0.9       3.1      13.4      19.1      24.8    398.82
    27     7  2014    68     2     828.7     6.8      0.0    0.0    6.8    0.0      0.0      0.0   -9.90      1.1      1.1    100      2.3      2.3   100      3.4     3.4     100     15.8    1.87      0      0      0      0      0    51.6    51.6      0     0.76      2.3      2.3      2.3   100    13.2     6.007    97.4    5.849   29.246      63        2.42    0.000    0.009     828.7    814.2    1.87   486.8     860.4     542.4     475.1     347.0     319.3     243.2    0.000     0.000     0.000     0.000     0.000    1.87     0.00    0.00      0   -9.90   -9.00       27.6       26.8       26.9       26.6       23.2       23.9       24.8       26.7       28.4       29.0       29.0       29.0        0.0        0.0        0.0        0.0        0.0        0.0        0.0        0.0        0.0        0.0        0.0        0.0      6.8       3.0      16.5      20.8      25.1    398.82
    28     7  2014    69     2     829.1     2.2      0.0    0.0    2.2    0.0      0.0      0.0   -9.90      0.6      0.6    100      1.2      1.2   100      1.8     1.8     100     10.2    1.88      0      0      0      0      0    52.0    52.0      0     0.76      1.2      1.2      1.2   100    13.0     6.095    97.4    5.937   29.683      63        2.44    0.000    0.012     829.1    814.6    1.88   490.9     866.3     546.2     462.6     338.2     311.9     244.8    0.000     0.000     0.000     0.000     0.000    1.88     0.00    0.00      0   -9.90   -9.00       29.2       26.7       26.8       26.5       23.1       23.9       24.8       26.7       28.4       29.0       29.0       29.0        0.0        0.0        0.0        0.0        0.0        0.0        0.0        0.0        0.0        0.0        0.0        0.0      2.2       1.6      12.8      15.2      17.7    398.82
    29     7  2014    70     2     826.9     1.9      0.0    0.0    1.9    0.0      0.0      0.0   -9.90      1.3      1.3    100      2.8      2.8   100      4.1     4.1     100     11.6    1.90      0      0      0      0      0    52.5    52.5      0     0.77      2.8      2.8      2.8   100    12.9     6.179    97.4    6.021   30.107      62        2.44    0.000    0.014     826.9    812.4    1.90   492.9     873.0     550.4     488.9     356.9     328.2     246.7    0.000     0.000     0.000     0.000     0.000    1.90     0.00    0.00      0   -9.90   -9.00       29.4       26.6       26.7       26.4       23.0       23.7       24.6       26.6       28.3       29.0       29.0       29.0        0.0        0.0        0.0        0.0        0.0        0.0        0.0        0.0        0.0        0.0        0.0        0.0      1.9       3.6      10.9      16.6      22.4    398.82
    30     7  2014    71     2     834.9    11.3      0.0    0.0   11.0    0.3      0.0      0.0   -9.90      1.0      1.0    100      2.1      2.1   100      3.0     3.0     100     11.6    1.91      0      0      0      0      0    53.0    53.0      0     0.77      2.1      2.1      2.1   100    12.8     6.262    97.5    6.104   30.518      62        2.44    0.000    0.016     834.9    820.4    1.91   505.0     879.6     554.6     482.3     352.3     324.4     248.6    0.000     0.000     0.000     0.000     0.000    1.91     0.00    0.00      0   -9.90   -9.00       39.0       26.7       26.5       26.2       22.8       23.6       24.6       26.5       28.2       29.0       29.0       29.0        0.0        0.0        0.0        0.0        0.0        0.0        0.0        0.0        0.0        0.0        0.0        0.0     11.3       2.7      12.9      16.6      20.2    398.82
    31     7  2014    72     2     842.0    10.6      0.0    0.0   10.4    0.2      0.0      0.0   -9.90      1.0      1.0    100      2.2      2.2   100      3.3     3.3     100     10.9    1.93      0      0      0      0      0    53.4    53.4      0     0.77      2.2      2.2      2.2   100    12.7     6.341    97.5    6.183   30.917      62        2.44    0.000    0.019     842.0    827.5    1.93   516.0     885.9     558.5     488.0     356.4     328.1     250.4    0.000     0.000     0.000     0.000     0.000    1.93     0.00    0.00      0   -9.90   -9.00       38.5       29.1       29.0       27.1       22.7       23.5       24.4       26.4       28.2       29.0       29.0       29.0        0.0        0.0        0.0        0.0        0.0        0.0        0.0        0.0        0.0        0.0        0.0        0.0     10.6       2.9      12.2      15.9      19.6    398.82
     1     8  2014    73     2     841.3     3.3      0.0    0.0    3.3    0.0      0.0      0.0   -9.90      1.3      1.3    100      2.8      2.8   100      4.1     4.1     100     14.4    1.94      0      0      0      0      0    53.8    53.8      0     0.78      2.8      2.8      2.8   100    12.6     6.419    97.5    6.261   31.303      62        2.43    0.000    0.021     841.3    826.8    1.94   520.5     894.0     563.6     500.7     365.5     336.1     252.7    0.000     0.000     0.000     0.000     0.000    1.94     0.00    0.00      0   -9.90   -9.00       31.1       29.1       29.1       29.0       24.7       23.3       24.3       26.3       28.1       29.0       29.0       29.0        0.0        0.0        0.0        0.0        0.0        0.0        0.0        0.0        0.0        0.0        0.0        0.0      3.3       3.6      13.3      19.4      25.5    398.82
     2     8  2014    74     2     837.1     0.3      0.0    0.0    0.3    0.0      0.0      0.0   -9.90      1.4      1.3     95      3.1      3.1   100      4.5     4.4      98     16.1    1.96      0      0      0      0      0    54.3    54.3      0     0.78      3.1      3.1      3.1   100    12.4     6.494    97.6    6.336   31.678      62        2.42    0.000    0.023     837.1    822.6    1.96   522.1     903.2     569.4     510.5     372.6     342.3     255.2    0.000     0.000     0.000     0.000     0.000    1.96     0.00    0.00      0   -9.90   -9.00       27.8       28.9       28.9       28.9       25.5       23.2       24.2       26.2       28.0       29.0       29.0       29.0        0.0        0.0        0.0        0.0        0.0        0.0        0.0        0.0        0.0        0.0        0.0        0.0      0.3       4.0      14.3      21.1      28.0    398.82
     3     8  2014    75     2     834.3     1.5      0.0    0.0    1.5    0.0      0.0      0.0   -9.90      1.3      1.3    100      3.0      3.0   100      4.3     4.3     100     16.8    1.98      0      0      0      0      0    54.6    54.6      0     0.79      3.0      3.0      3.0   100    12.3     6.566    97.6    6.408   32.040      61        2.41    0.000    0.025     834.3    819.8    1.98   525.3     912.6     575.3     513.4     374.8     344.5     257.9    0.000     0.000     0.000     0.000     0.000    1.98     0.00    0.00      0   -9.90   -9.00       27.8       28.7       28.7       28.7       25.3       23.0       24.0       26.0       27.9       28.9       29.0       29.0        0.0        0.0        0.0        0.0        0.0        0.0        0.0        0.0        0.0        0.0        0.0        0.0      1.5       3.8      15.5      21.8      28.1    398.82
     4     8  2014    76     2     831.0     0.8      0.0    0.0    0.8    0.0      0.0      0.0   -9.90      1.2      1.2     99      2.9      2.9   100      4.2     4.2     100     17.8    2.01      0      0      0      0      0    55.0    55.0      0     0.79      2.9      2.9      2.9   100    12.2     6.636    97.6    6.478   32.390      61        2.40    0.000    0.026     831.0    816.5    2.01   528.2     922.5     581.6     517.8     378.0     347.5     260.7    0.000     0.000     0.000     0.000     0.000    2.01     0.00    0.00      0   -9.90   -9.00       27.1       28.5       28.5       28.5       25.1       22.9       23.9       25.9       27.8       28.9       29.0       29.0        0.0        0.0        0.0        0.0        0.0        0.0        0.0        0.0        0.0        0.0        0.0        0.0      0.8       3.7      16.5      22.8      29.0    398.82
     5     8  2014    77     2     828.4     0.6      0.0    0.0    0.6    0.0      0.0      0.0   -9.90      0.9      0.9     99      2.2      2.2   100      3.2     3.2     100     13.9    2.02      0      0      0      0      0    55.2    55.2      0     0.79      2.2      2.2      2.2   100    12.0     6.703    97.6    6.545   32.727      61        2.39    0.000    0.028     828.4    813.9    2.02   530.6     930.2     586.4     511.2     373.4     343.8     262.9    0.000     0.000     0.000     0.000     0.000    2.02     0.00    0.00      0   -9.90   -9.00       26.6       28.3       28.4       28.4       25.0       22.7       23.8       25.8       27.7       28.9       29.0       29.0        0.0        0.0        0.0        0.0        0.0        0.0        0.0        0.0        0.0        0.0        0.0        0.0      0.6       2.8      13.7      18.9      24.2    398.82
     6     8  2014    78     2     826.3     2.2      0.0    0.0    2.2    0.0      0.0      0.0   -9.90      1.3      1.3    100      3.0      3.0   100      4.3     4.3     100     12.3    2.04      0      0      0      0      0    55.4    55.4      0     0.80      3.0      3.0      3.0   100    11.9     6.769    97.7    6.611   33.053      61        2.38    0.000    0.029     826.3    811.8    2.04   532.9     937.0     590.7     527.2     384.8     353.7     264.8    0.000     0.000     0.000     0.000     0.000    2.04     0.00    0.00      0   -9.90   -9.00       27.4       28.1       28.2       28.2       24.8       22.6       23.7       25.7       27.6       28.9       29.0       29.0        0.0        0.0        0.0        0.0        0.0        0.0        0.0        0.0        0.0        0.0        0.0        0.0      2.2       3.8      10.8      17.3      23.8    398.82
     7     8  2014    79     2     822.6     0.5      0.0    0.0    0.5    0.0      0.0      0.0   -9.90      1.3      1.2     98      3.0      3.0   100      4.3     4.3      99     13.1    2.05      0      0      0      0      0    55.6    55.6      0     0.80      3.0      3.0      3.0   100    11.8     6.832    97.7    6.674   33.368      60        2.37    0.000    0.031     822.6    808.1    2.05   533.7     944.2     595.3     531.2     387.8     356.4     266.8    0.000     0.000     0.000     0.000     0.000    2.05     0.00    0.00      0   -9.90   -9.00       26.4       27.9       28.0       28.0       24.7       22.4       23.5       25.6       27.5       28.8       29.0       29.0        0.0        0.0        0.0        0.0        0.0        0.0        0.0        0.0        0.0        0.0        0.0        0.0      0.5       3.8      13.6      18.1      22.5    398.82
     8     8  2014    80     2     818.4     0.0      0.0    0.0    0.0    0.0      0.0      0.0   -9.90      1.3      1.1     82      3.1      3.1   100      4.4     4.2      95     14.2    2.07      0      0      0      0      0    55.8    55.8      0     0.80      3.1      3.1      3.1   100    11.6     6.893    97.7    6.734   33.672      60        2.35    0.000    0.032     818.4    803.9    2.07   534.5     952.0     600.2     536.8     391.8     360.1     269.0    0.000     0.000     0.000     0.000     0.000    2.07     0.00    0.00      0   -9.90   -9.00       25.2       27.7       27.8       27.8       24.5       22.3       23.4       25.5       27.4       28.8       29.0       29.0        0.0        0.0        0.0        0.0        0.0        0.0        0.0        0.0        0.0        0.0        0.0        0.0      0.0       3.9      14.0      19.2      24.4    398.82
     9     8  2014    81     2     814.3     0.0      0.0    0.0    0.0    0.0      0.0      0.0   -9.90      1.3      0.9     70      3.2      3.2   100      4.5     4.1      91     14.9    2.09     -9      0      0      0      0    56.3    56.3      0     0.80      3.2      3.2      3.2   100    11.5     6.952    97.7    6.793   33.967      60        2.34    0.000    0.033     814.3    799.8    2.09   535.5     960.1     605.3     542.7     396.1     363.9     271.3    0.000     0.000     0.000     0.000     0.000    2.09     0.00    0.00      0   -9.90   -9.00       24.0       27.5       27.6       27.6       24.3       22.1       23.2       25.3       27.3       28.7       29.0       29.0        0.0        0.0        0.0        0.0        0.0        0.0        0.0        0.0        0.0        0.0        0.0        0.0      0.0       4.0      13.6      19.9      26.3    398.82
    10     8  2014    82     2     810.1     0.0      0.0    0.0    0.0    0.0      0.0      0.0   -9.90      1.4      0.8     60      3.4      3.4   100      4.7     4.2      88     16.4    2.11     -9      0      0      0      0    56.2    56.2      0     0.80      3.4      3.4      3.4   100    11.3     7.008    97.7    6.850   34.249      60        2.32    0.000    0.034     810.1    795.6    2.11   537.0     969.0     610.9     550.2     401.5     368.8     273.8    0.000     0.000     0.000     0.000     0.000    2.11     0.00    0.00      0   -9.90   -9.00       23.0       27.3       27.4       27.4       24.1       22.0       23.1       25.2       27.2       28.7       29.0       29.0        0.0        0.0        0.0        0.0        0.0        0.0        0.0        0.0        0.0        0.0        0.0        0.0      0.0       4.2      14.7      21.4      28.0    398.82
    11     8  2014    83     2     806.1     0.0      0.0    0.0    0.0    0.0      0.0      0.0   -9.90      1.3      0.7     52      3.3      3.3   100      4.6     4.0      86     16.6    2.13     -9      0      0      0      0    56.1    56.1      0     0.80      3.3      3.3      3.3   100    11.2     7.062    97.8    6.904   34.522      60        2.31    0.000    0.035     806.1    791.6    2.13   538.6     978.0     616.5     554.0     404.3     371.5     276.4    0.000     0.000     0.000     0.000     0.000    2.13     0.00    0.00      0   -9.90   -9.00       22.1       27.1       27.2       27.2       23.9       21.8       22.9       25.1       27.0       28.6       29.0       29.0        0.0        0.0        0.0        0.0        0.0        0.0        0.0        0.0        0.0        0.0        0.0        0.0      0.0       4.1      15.8      21.6      27.4    398.82
    12     8  2014    84     2     818.1    14.1      0.0    0.0   14.1    0.0      0.0      0.0   -9.90      0.6      0.6    100      1.4      1.4   100      2.0     2.0     100     14.4    2.14     -9      0      0      0      0    56.1    56.1      0     0.80      1.4      1.4      1.4   100    11.0     7.115    97.8    6.957   34.785      59        2.31    0.000    0.035     818.1    803.6    2.14   555.5     985.7     621.4     528.9     386.6     356.5     278.6    0.000     0.000     0.000     0.000     0.000    2.14     0.00    0.00      0   -9.90   -9.00       35.4       27.0       27.1       27.1       23.9       21.7       22.9       25.0       27.0       28.6       29.0       29.0        0.0        0.0        0.0        0.0        0.0        0.0        0.0        0.0        0.0        0.0        0.0        0.0     14.1       1.8      17.5      19.4      21.2    398.82
    13     8  2014    85     2     836.7    23.7      0.0    0.0   21.1    2.6      0.0      0.0   -9.90      0.7      0.7    100      1.8      1.8   100      2.5     2.5     100     12.9    2.16     -9      0      0      0      0    56.1    56.1      0     0.80      1.8      1.8      1.8   100    10.9     7.166    97.8    7.008   35.040      59        2.31    0.000    0.036     836.7    822.2    2.16   578.4     992.5     625.7     537.7     393.0     362.1     280.5    0.000     0.000     0.000     0.000     0.000    2.16     0.00    0.00      0   -9.90   -9.00       45.2       32.0       28.9       27.0       23.8       21.6       22.8       24.9       26.9       28.6       29.0       29.0        0.0        0.0        0.0        0.0        0.0        0.0        0.0        0.0        0.0        0.0        0.0        0.0     23.7       2.2      11.8      17.9      23.9    398.82
    14     8  2014    86     2     835.8     1.4      0.0    0.0    1.4    0.0      0.0      0.0   -9.90      0.7      0.7    100      1.7      1.7   100      2.4     2.4     100      8.0    2.17     -9      0      0      0      0    56.0    56.0      0     0.80      1.7      1.7      1.7   100    10.7     7.215    97.8    7.057   35.286      59        2.31    0.000    0.036     835.8    821.3    2.17   580.1     996.8     628.4     538.7     393.7     362.9     281.7    0.000     0.000     0.000     0.000     0.000    2.17     0.00    0.00      0   -9.90   -9.00       29.7       29.1       29.3       29.2       29.1       23.2       22.7       24.9       26.9       28.5       29.0       29.0        0.0        0.0        0.0        0.0        0.0        0.0        0.0        0.0        0.0        0.0        0.0        0.0      1.4       2.1       9.6      13.0      16.4    398.82
    15     8  2014    87     2     835.8     1.8      0.0    0.0    1.8    0.0      0.0      0.0   -9.90      0.5      0.5    100      1.3      1.3   100      1.8     1.8     100      8.1    2.18     -9      0      0      0      0    56.0    56.0      0     0.80      1.3      1.3      1.3   100    10.6     7.263    97.8    7.105   35.524      58        2.31    0.000    0.036     835.8    821.3    2.18   582.8    1001.1     631.1     534.5     390.8     360.5     282.9    0.000     0.000     0.000     0.000     0.000    2.18     0.00    0.00      0   -9.90   -9.00       30.2       29.0       28.9       29.0       29.0       23.8       22.7       24.8       26.8       28.5       29.0       29.0        0.0        0.0        0.0        0.0        0.0        0.0        0.0        0.0        0.0        0.0        0.0        0.0      1.8       1.6       8.4      13.1      17.8    398.82
[...]
     7    10  2016   154     2     682.4     0.1      0.0    0.0    0.1    0.0      0.0      0.0   -9.90      0.7      0.7     98      1.4      1.4   100      2.1     2.1      99     12.0    3.00      0      0      0      0      0    52.8    52.8      0     0.76      1.4      1.4      1.4   100     7.9    12.308   100.0   12.308   61.541      50        2.42    0.000    0.033     682.4    671.1    3.00   671.1    1380.0     870.0     742.2     542.6     500.2     390.0    0.000     0.000     0.000     0.000     0.000    3.00     0.00    0.00      0   -9.90   -9.00       26.8       28.6       28.4       28.4       28.4       26.4       16.4       17.3       18.3       19.5       20.6       22.7        0.0        0.0        0.0        0.0        0.0        0.0        0.0        0.0        0.0        0.0        0.0        0.0      0.1       1.9       9.7      17.0      24.3    404.41
     8    10  2016   155     2     689.7     8.2      0.0    0.0    8.2    0.0      0.0      0.0   -9.90      0.3      0.3    100      0.6      0.6   100      0.9     0.9     100      9.2    3.00      0      0      0      0      0    53.0    53.0      0     0.77      0.6      0.6      0.6   100     8.0    12.336   100.0   12.336   61.680      49        2.42    0.000    0.033     689.7    678.4    3.00   678.4    1380.0     870.0     722.4     528.6     488.2     390.0    0.000     0.000     0.000     0.000     0.000    3.00     0.00    0.00      0   -9.90   -9.00       34.7       28.6       28.4       28.3       28.3       26.4       16.4       17.3       18.3       19.4       20.6       22.7        0.0        0.0        0.0        0.0        0.0        0.0        0.0        0.0        0.0        0.0        0.0        0.0      8.2       0.8       9.4      14.2      19.0    404.41
     9    10  2016   156     2     689.9     0.8      0.0    0.0    0.8    0.0      0.0      0.0   -9.90      0.4      0.4    100      0.2      0.2   100      0.6     0.6     100      2.9    3.00      0      0      0      0      0    53.0    53.0     75     0.77      0.2      0.2      0.2   100     8.0    12.343   100.0   12.343   61.715      49        2.42    0.000    0.009     689.9    678.6    3.00   678.6    1380.0     870.0     727.8     532.4     491.5     390.0    0.000     0.000     0.000     0.000     0.000    3.00     0.00    0.00      0   -9.90   -9.00       29.5       29.2       29.2       29.1       29.1       26.6       16.4       17.3       18.3       19.4       20.6       22.7        0.0        0.0        0.0        0.0        0.0        0.0        0.0        0.0        0.0        0.0        0.0        0.0      0.8       1.1       3.3       7.9      12.6    404.41
    10    10  2016   157     2     689.4     0.0      0.0    0.0    0.0    0.0      0.0      0.0   -9.90      0.5      0.5    100      0.1      0.1   100      0.5     0.5     100      1.5    3.00      0      0      0      0      0    53.0    53.0     93     0.77      0.1      0.1      0.1   100     8.0    12.345   100.0   12.345   61.724      49        2.42    0.000    0.002     689.4    678.0    3.00   678.0    1380.0     870.0     731.4     534.9     493.6     390.0    0.000     0.000     0.000     0.000     0.000    3.00     0.00    0.00      0   -9.90   -9.00       28.6       29.0       29.0       29.0       29.0       27.1       16.4       17.3       18.3       19.4       20.6       22.7        0.0        0.0        0.0        0.0        0.0        0.0        0.0        0.0        0.0        0.0        0.0        0.0      0.0       1.3       0.6       6.5      12.5    404.41
    11    10  2016   158     2     688.3     0.0      0.0    0.0    0.0    0.0      0.0      0.0   -9.90      0.5      0.5     98      0.6      0.6   100      1.1     1.1      99      4.6    3.00      0      0      0      0      0    53.1    53.1     36     0.77      0.6      0.6      0.6   100     8.0    12.362   100.0   12.362   61.812      49        2.42    0.000    0.022     688.3    677.0    3.00   677.0    1380.0     870.0     731.4     534.9     493.6     390.0    0.000     0.000     0.000     0.000     0.000    3.00     0.00    0.00      0   -9.90   -9.00       28.1       29.0       29.0       29.0       29.0       27.1       16.3       17.3       18.3       19.4       20.6       22.7        0.0        0.0        0.0        0.0        0.0        0.0        0.0        0.0        0.0        0.0        0.0        0.0      0.0       1.3       0.9       9.6      18.4    404.41
    12    10  2016   159     2     686.8     0.0      0.0    0.0    0.0    0.0      0.0      0.0   -9.90      0.5      0.5     92      1.1      1.1   100      1.6     1.5      98      8.1    3.00     -9      0      0      0      0    53.1    53.1      0     0.77      1.1      1.1      1.1   100     8.0    12.390   100.0   12.390   61.949      49        2.42    0.000    0.034     686.8    675.4    3.00   675.4    1380.0     870.0     733.2     536.2     494.7     390.0    0.000     0.000     0.000     0.000     0.000    3.00     0.00    0.00      0   -9.90   -9.00       27.6       28.9       28.9       28.9       28.9       27.1       16.3       17.2       18.3       19.4       20.6       22.7        0.0        0.0        0.0        0.0        0.0        0.0        0.0        0.0        0.0        0.0        0.0        0.0      0.0       1.4       5.8      13.1      20.4    404.41
    13    10  2016   160     2     687.7     1.3      0.0    0.0    1.3    0.0      0.0      0.0   -9.90      0.3      0.3    100      0.1      0.1   100      0.4     0.4     100      2.6    3.00     -9      0      0      0      0    53.1    53.1     81     0.77      0.1      0.1      0.1   100     8.0    12.395   100.0   12.395   61.975      49        2.41    0.000    0.007     687.7    676.3    3.00   676.3    1380.0     870.0     722.4     528.6     488.2     390.0    0.000     0.000     0.000     0.000     0.000    3.00     0.00    0.00      0   -9.90   -9.00       28.6       28.9       28.9       28.9       28.9       27.1       16.3       17.2       18.3       19.4       20.6       22.7        0.0        0.0        0.0        0.0        0.0        0.0        0.0        0.0        0.0        0.0        0.0        0.0      1.3       0.8       1.2       7.6      14.0    404.41
    14    10  2016   161     2     687.8     0.6      0.0    0.0    0.6    0.0      0.0      0.0   -9.90      0.4      0.4    100      0.1      0.1   100      0.4     0.4     100      1.6    3.00     -9      0      0      0      0    53.1    53.1     93     0.77      0.1      0.1      0.1   100     8.0    12.397   100.0   12.397   61.984      49        2.41    0.000    0.002     687.8    676.5    3.00   676.5    1380.0     870.0     726.0     531.1     490.4     390.0    0.000     0.000     0.000     0.000     0.000    3.00     0.00    0.00      0   -9.90   -9.00       28.8       28.9       28.9       28.9       28.9       27.0       16.3       17.2       18.3       19.4       20.6       22.7        0.0        0.0        0.0        0.0        0.0        0.0        0.0        0.0        0.0        0.0        0.0        0.0      0.6       1.0       0.8       6.6      12.4    404.41
    15    10  2016   162     2     687.1     0.2      0.0    0.0    0.2    0.0      0.0      0.0   -9.90      0.4      0.4     99      0.6      0.6   100      0.9     0.9     100      4.7    3.00     -9      0      0      0      0    53.1    53.1     34     0.77      0.6      0.6      0.6   100     8.0    12.415   100.0   12.415   62.074      49        2.41    0.000    0.022     687.1    675.8    3.00   675.8    1380.0     870.0     727.8     532.4     491.5     390.0    0.000     0.000     0.000     0.000     0.000    3.00     0.00    0.00      0   -9.90   -9.00       28.6       28.9       28.9       28.9       28.9       27.0       16.3       17.2       18.2       19.4       20.6       22.6        0.0        0.0        0.0        0.0        0.0        0.0        0.0        0.0        0.0        0.0        0.0        0.0      0.2       1.1       1.7       9.7      17.7    404.41
    16    10  2016   163     2     693.1     6.8      0.0    0.0    6.8    0.0      0.0      0.0   -9.90      0.2      0.2    100      0.5      0.5   100      0.8     0.8     100      8.0    3.00     -9      0      0      0      0    53.1    53.1      0     0.77      0.5      0.5      0.5   100     8.0    12.442   100.0   12.442   62.209      49        2.41    0.000    0.034     693.1    681.8    3.00   681.8    1380.0     870.0     720.6     527.3     487.1     390.0    0.000     0.000     0.000     0.000     0.000    3.00     0.00    0.00      0   -9.90   -9.00       35.1       28.9       28.9       28.9       28.9       27.0       16.2       17.2       18.2       19.3       20.6       22.6        0.0        0.0        0.0        0.0        0.0        0.0        0.0        0.0        0.0        0.0        0.0        0.0      6.8       0.7       9.0      13.0      17.0    404.41
    17    10  2016   164     2     702.6    10.5      0.0    0.0   10.3    0.2      0.0      0.0   -9.90      0.4      0.4    100      0.5      0.5   100      0.8     0.8     100      4.4    3.00      0      0      0      0      0    53.1    53.1     41     0.77      0.5      0.5      0.5   100     8.3    12.458   100.0   12.458   62.292      49        2.41    0.000    0.021     702.6    691.3    3.00   691.3    1380.0     870.0     726.0     531.1     490.4     390.0    0.000     0.000     0.000     0.000     0.000    3.00     0.00    0.00      0   -9.90   -9.00       39.2       29.2       29.1       29.1       29.0       28.6       16.2       17.2       18.2       19.3       20.5       22.6        0.0        0.0        0.0        0.0        0.0        0.0        0.0        0.0        0.0        0.0        0.0        0.0     10.5       1.0       5.8       9.4      13.0    404.41
    18    10  2016   165     2     706.1     4.7      0.0    0.0    4.7    0.0      0.0      0.0   -9.90      0.4      0.4    100      0.8      0.8   100      1.1     1.1     100     11.2    3.00      0      0      0      0      0    53.2    53.2      0     0.77      0.8      0.8      0.8   100     8.2    12.487   100.0   12.487   62.436      49        2.41    0.000    0.034     706.1    694.8    3.00   694.8    1380.0     870.0     726.0     531.1     490.4     390.0    0.000     0.000     0.000     0.000     0.000    3.00     0.00    0.00      0   -9.90   -9.00       33.6       29.3       29.2       29.1       29.1       29.1       19.4       17.1       18.2       19.3       20.5       22.6        0.0        0.0        0.0        0.0        0.0        0.0        0.0        0.0        0.0        0.0        0.0        0.0      4.7       1.0       8.6      16.2      23.8    404.41
    19    10  2016   166     2     705.7     0.8      0.0    0.0    0.8    0.0      0.0      0.0   -9.90      0.4      0.4    100      0.8      0.8   100      1.2     1.2     100      7.2    3.00      0      0      0      0      0    53.3    53.3      4     0.77      0.8      0.8      0.8   100     8.0    12.514   100.0   12.514   62.571      48        2.41    0.000    0.032     705.7    694.4    3.00   694.4    1380.0     870.0     727.8     532.4     491.5     390.0    0.000     0.000     0.000     0.000     0.000    3.00     0.00    0.00      0   -9.90   -9.00       29.4       29.2       29.1       29.1       29.1       29.0       21.3       17.1       18.2       19.3       20.5       22.6        0.0        0.0        0.0        0.0        0.0        0.0        0.0        0.0        0.0        0.0        0.0        0.0      0.8       1.1       7.2      12.2      17.2    404.41
    20    10  2016   167     2     720.0    15.7      0.0    0.0   14.8    0.9      0.0      0.0   -9.90      0.2      0.2    100      0.4      0.4   100      0.6     0.6     100      5.4    3.00      0      0      0      0      0    53.3    53.3     20     0.77      0.4      0.4      0.4   100     8.1    12.537   100.0   12.537   62.684      48        2.41    0.000    0.027     720.0    708.7    3.00   708.7    1380.0     870.0     718.8     526.0     486.0     390.0    0.000     0.000     0.000     0.000     0.000    3.00     0.00    0.00      0   -9.90   -9.00       43.6       29.0       29.0       29.0       29.0       29.0       21.7       17.1       18.2       19.3       20.5       22.6        0.0        0.0        0.0        0.0        0.0        0.0        0.0        0.0        0.0        0.0        0.0        0.0     15.7       0.6       6.7      10.4      14.2    404.41
    21    10  2016   168     2     742.3    25.6      0.0    0.0   22.5    3.1      0.0      0.0   -9.90      0.1      0.1    100      0.0      0.0   100      0.1     0.1     100      1.6    3.00      0      0      0      0      0    53.3    53.3     93     0.77      0.0      0.0      0.0   100     8.1    12.539   100.0   12.539   62.694      48        2.41    0.000    0.002     742.3    731.0    3.00   731.0    1380.0     870.0     713.4     522.2     482.7     390.0    0.000     0.000     0.000     0.000     0.000    3.00     0.00    0.00      0   -9.90   -9.00       45.9       33.0       29.3       29.2       29.2       29.1       26.7       17.1       18.1       19.3       20.5       22.6        0.0        0.0        0.0        0.0        0.0        0.0        0.0        0.0        0.0        0.0        0.0        0.0     25.6       0.3       3.4       6.6       9.8    404.41
    22    10  2016   169     2     754.7    13.0      0.0    0.0   12.5    0.5      0.0      0.0   -9.90      0.1      0.1    100      0.0      0.0   100      0.1     0.1     100      0.0    3.00      0     -9      0      0      0    53.3    53.3    100    -9.00      0.0      0.0      0.0   100     8.1    12.539   100.0   12.539   62.694      48        2.41    0.000    0.000     754.7    743.4    3.00   743.4    1380.0     870.0     715.2     523.5     483.8     390.0    0.000     0.000     0.000     0.000     0.000    3.00     0.00    0.00      0   -9.90   -9.00       41.4       29.1       29.4       29.3       29.3       29.2       29.2       22.4       18.1       19.3       20.5       22.6        0.0        0.0        0.0        0.0        0.0        0.0        0.0        0.0        0.0        0.0        0.0        0.0     13.0       0.4       2.7       3.7       4.7    404.41
    23    10  2016   170     2     755.6     1.9      0.0    0.0    1.9    0.0      0.0      0.0   -9.90      1.0      1.0    100      0.0      0.0   100      1.0     1.0     100      0.6    3.00     -9     -9     -9      0      0    53.3    53.3     98    -9.00      0.0      0.0      0.0   100     8.1    12.539   100.0   12.539   62.694      48        2.41    0.000    0.000     755.6    744.3    3.00   744.3    1380.0     870.0     724.2     529.8     489.3     390.0    0.000     0.000     0.000     0.000     0.000    3.00     0.00    0.00      0   -9.90   -9.00       30.1       29.4       29.3       29.2       29.2       29.1       29.1       26.6       18.1       19.3       20.5       22.6        0.0        0.0        0.0        0.0        0.0        0.0        0.0        0.0        0.0        0.0        0.0        0.0      1.9       0.9       1.1       5.6      10.1    404.41
    24    10  2016   171     2     754.9     0.1      0.0    0.0    0.1    0.0      0.0      0.0   -9.90      0.8      0.7     96      0.0      0.0   100      0.8     0.7      96      0.0    3.00     -9     -9     -9      0      0    53.3    53.3    100    -9.00      0.0      0.0      0.0   100     8.1    12.539   100.0   12.539   62.694      48        2.41    0.000    0.000     754.9    743.7    3.00   743.7    1380.0     870.0     720.6     527.3     487.1     390.0    0.000     0.000     0.000     0.000     0.000    3.00     0.00    0.00      0   -9.90   -9.00       28.4       29.1       29.1       29.0       29.0       29.0       29.0       27.6       18.1       19.3       20.5       22.6        0.0        0.0        0.0        0.0        0.0        0.0        0.0        0.0        0.0        0.0        0.0        0.0      0.1       0.7       2.2       5.0       7.7    404.41
    25    10  2016   172     2     754.9     0.6      0.0    0.0    0.6    0.0      0.0      0.0   -9.90      0.7      0.7    100      0.0      0.0   100      0.7     0.7     100      0.0    3.00     -9     -9     -9      0      0    53.3    53.3    100    -9.00      0.0      0.0      0.0   100     8.1    12.539   100.0   12.539   62.694      48        2.40    0.000    0.000     754.9    743.6    3.00   743.6    1380.0     870.0     718.8     526.0     486.0     390.0    0.000     0.000     0.000     0.000     0.000    3.00     0.00    0.00      0   -9.90   -9.00       28.3       29.0       29.0       29.0       29.0       29.0       29.0       27.7       18.1       19.3       20.5       22.6        0.0        0.0        0.0        0.0        0.0        0.0        0.0        0.0        0.0        0.0        0.0        0.0      0.6       0.6       0.1       3.1       6.1    404.41
    26    10  2016   173     2     754.4     0.1      0.0    0.0    0.1    0.0      0.0      0.0   -9.90      0.6      0.5     99      0.0      0.0   100      0.6     0.5      99      0.0    3.00     -9     -9     -9      0      0    53.3    53.3    100    -9.00      0.0      0.0      0.0   100     8.1    12.539   100.0   12.539   62.694      48        2.40    0.000    0.000     754.4    743.1    3.00   743.1    1380.0     870.0     717.0     524.7     484.9     390.0    0.000     0.000     0.000     0.000     0.000    3.00     0.00    0.00      0   -9.90   -9.00       27.9       29.0       29.0       29.0       29.0       29.0       29.0       27.7       18.1       19.3       20.5       22.6        0.0        0.0        0.0        0.0        0.0        0.0        0.0        0.0        0.0        0.0        0.0        0.0      0.1       0.5      -3.2       0.5       4.3    404.41
    27    10  2016   174     2     761.0     7.1      0.0    0.0    7.1    0.0      0.0      0.0   -9.90      0.6      0.6    100      0.0      0.0   100      0.6     0.6     100      0.0    3.00     -9     -9     -9      0      0    53.3    53.3    100    -9.00      0.0      0.0      0.0   100     8.1    12.539   100.0   12.539   62.694      48        2.40    0.000    0.000     761.0    749.7    3.00   749.7    1380.0     870.0     717.0     524.7     484.9     390.0    0.000     0.000     0.000     0.000     0.000    3.00     0.00    0.00      0   -9.90   -9.00       34.4       29.0       29.0       29.0       29.0       29.0       29.0       27.7       18.1       19.3       20.5       22.6        0.0        0.0        0.0        0.0        0.0        0.0        0.0        0.0        0.0        0.0        0.0        0.0      7.1       0.5      -3.5       0.4       4.2    404.41
    28    10  2016   175     2     763.1     2.7      0.0    0.0    2.7    0.0      0.0      0.0   -9.90      0.6      0.6    100      0.0      0.0   100      0.6     0.6     100      0.0    3.00     -9     -9     -9      0      0    53.3    53.3    100    -9.00      0.0      0.0      0.0   100     8.1    12.539   100.0   12.539   62.694      48        2.40    0.000    0.000     763.1    751.8    3.00   751.8    1380.0     870.0     717.0     524.7     484.9     390.0    0.000     0.000     0.000     0.000     0.000    3.00     0.00    0.00      0   -9.90   -9.00       31.4       29.2       29.2       29.1       29.1       29.0       29.0       29.0       18.2       19.3       20.5       22.6        0.0        0.0        0.0        0.0        0.0        0.0        0.0        0.0        0.0        0.0        0.0        0.0      2.7       0.5      -0.5       3.2       6.9    404.41
