AquaCrop 7.3 (January 2026) - Output created on (date) : 28-01-2026   at (time) : 13:50:05
Biomass and Yield at Multiple cuttings

   Run:   1
    Nr   Day  Month Year   DAP Interval  Biomass    Sum(B)   Dry-Yield  Sum(Y) Fresh-Yield  Sum(Y)
                                 days     ton/ha    ton/ha    ton/ha    ton/ha    ton/ha    ton/ha
     0    21     5  2014                             0.000               0.000               0.000
     1    13     7  2014    54    54       4.792     4.792     4.633     4.633    23.167    23.167
     2    31     8  2014   103    49       3.074     7.865     3.074     7.707    15.368    38.535
  9999     1    11  2014                             9.171               9.012              45.062

   Run:   2
    Nr   Day  Month Year   DAP Interval  Biomass    Sum(B)   Dry-Yield  Sum(Y) Fresh-Yield  Sum(Y)
                                 days     ton/ha    ton/ha    ton/ha    ton/ha    ton/ha    ton/ha
     0     1     5  2015                             0.000               0.000               0.000
     1    20     6  2015    51   232       5.702     5.702     5.702     5.702    28.508    28.508
     2    26     7  2015    87    36       3.441     9.142     3.441     9.142    17.205    45.712
     3    30     8  2015   122    35       1.613    10.755     1.613    10.755     8.065    53.777
  9999    25    10  2015                            11.943              11.943              59.713

   Run:   3
    Nr   Day  Month Year   DAP Interval  Biomass    Sum(B)   Dry-Yield  Sum(Y) Fresh-Yield  Sum(Y)
                                 days     ton/ha    ton/ha    ton/ha    ton/ha    ton/ha    ton/ha
     0     7     5  2016                             0.000               0.000               0.000
     1    15     6  2016    40   235       5.066     5.066     5.066     5.066    25.330    25.330
     2    20     7  2016    75    35       3.819     8.886     3.819     8.886    19.097    44.428
     3    29     8  2016   115    40       2.275    11.161     2.275    11.161    11.377    55.805
  9999    29    10  2016                            12.581              12.581              62.907
