AquaCrop 7.3 (January 2026) - Output created on (date) : 27-01-2026   at (time) : 14:34:45

    RunNr     Day1   Month1    Year1     Rain      ETo       GD     CO2      Irri   Infilt   Runoff    Drain   Upflow        E     E/Ex       Tr      TrW   Tr/Trx    SaltIn   SaltOut    SaltUp  SaltProf     Cycle   SaltStr  FertStr  WeedStr  TempStr   ExpStr   StoStr  BioMass  Brelative   HI    Y(dry)  Y(fresh)    WPet      Bin     Bout     DayN   MonthN    YearN
                                           mm       mm  degC.day    ppm        mm       mm       mm       mm       mm       mm        %       mm       mm        %    ton/ha    ton/ha    ton/ha    ton/ha      days       %        %        %        %        %        %    ton/ha        %       %    ton/ha   ton/ha    kg/m3   ton/ha   ton/ha
   Tot(1)       21        5     2014    487.5    431.0   1802.6   398.82      0.0    477.7      9.8     35.3      0.0    166.1       85    276.2    276.2      100     0.000     0.000     0.000     0.000      164        0       50        0       11        0        0     9.148       44     98.3    8.990   44.952     2.03    0.000    2.324       31       10     2014  Ottawa.PRM
   Tot(2)        1       11     2014    782.1    617.6   2118.6   401.02      0.0    768.9     13.2    194.5      0.0    288.7       89    348.3    348.3      100     0.000     0.000     0.000     0.000      177        0       50        0       11        0        0    11.909       47    100.0   11.909   59.545     2.27    0.279    2.293       24       10     2015  Ottawa.PRM
   Tot(3)       25       10     2015    926.2    653.7   2213.1   404.41      0.0    901.2     25.0    311.8      0.0    296.8       81    351.6    351.6      100     0.000     0.000     0.000     0.000      175        0       50        0       12        2        0    12.539       48    100.0   12.539   62.694     2.40    1.376    2.440       28       10     2016  Ottawa.PRM
