AquaCrop 7.2 (August 2024) - Output created on (date) : 22-10-2024   at (time) : 20:30:25

   Run:   1
   Day Month  Year   DAP Stage   WC(3.00)   Rain     Irri   Surf   Infilt   RO    Drain       CR    Zgwt       Ex       E     E/Ex     Trx       Tr  Tr/Trx    ETx      ET  ET/ETx      GD       Z     StExp  StSto  StSen StSalt StWeed   CC      CCw     StTr  Kc(Tr)     Trx       Tr      TrW  Tr/Trx   WP    Biomass     HI    Y(dry)  Y(fresh)  Brelative    WPet      Bin     Bout  WC(3.00) Wr(3.00)     Z       Wr    Wr(SAT)    Wr(FC)   Wr(exp)   Wr(sto)   Wr(sen)   Wr(PWP)    SaltIn    SaltOut   SaltUp   Salt(3.00)  SaltZ     Z       ECe    ECsw   StSalt  Zgwt    ECgw       WC01       WC 2       WC 3       WC 4       WC 5       WC 6       WC 7       WC 8       WC 9       WC10       WC11       WC12      ECe01      ECe 2      ECe 3      ECe 4      ECe 5      ECe 6      ECe 7      ECe 8      ECe 9      ECe10      ECe11      ECe12     Rain       ETo      Tmin      Tavg      Tmax      CO2
                                      mm      mm       mm     mm     mm     mm       mm       mm      m        mm       mm     %        mm       mm    %        mm      mm       %  degC-day     m       %      %      %      %      %      %       %       %       -        mm       mm       mm    %     g/m2    ton/ha      %    ton/ha   ton/ha       %       kg/m3   ton/ha   ton/ha      mm       mm       m       mm        mm        mm        mm        mm        mm         mm    ton/ha    ton/ha    ton/ha    ton/ha    ton/ha     m      dS/m    dS/m      %     m      dS/m       0.05       0.18       0.32       0.50       0.70       0.93       1.17       1.45       1.75       2.07       2.42       2.80       0.05       0.18       0.32       0.50       0.70       0.93       1.17       1.45       1.75       2.07       2.42       2.80       mm        mm     degC      degC      degC       ppm
    21     5  2014     1     1     866.5     0.1      0.0    0.0    0.1    0.0      0.0      0.0   -9.90      3.9      3.2     82      0.4      0.4   100      4.3     3.6      84     11.4    0.30     -9      0      0      0      0     5.4     5.4      0     0.10      0.4      0.4      0.4   100    16.1     0.017    -9.9    0.000    0.000     100        0.00    0.000    0.000     866.5    866.5    0.30    83.5     138.0      87.0      77.8      56.8      52.2      39.0    0.000     0.000     0.000     0.000     0.000    0.30     0.00    0.00      0   -9.90   -9.00       25.5       29.0       29.0       29.0       29.0       29.0       29.0       29.0       29.0       29.0       29.0       29.0        0.0        0.0        0.0        0.0        0.0        0.0        0.0        0.0        0.0        0.0        0.0        0.0      0.1       3.9      10.0      16.4      22.7    398.82
    22     5  2014     2     2     865.0     1.9      0.0    0.0    1.9    0.0      0.0      0.0   -9.90      3.2      3.1     97      0.4      0.4   100      3.5     3.4      97     11.0    0.34     -9      0      0      0      0     5.9     5.9      0     0.11      0.4      0.4      0.4   100    16.1     0.034     1.0    0.000    0.002      97        0.01    0.000    0.000     865.0    865.0    0.34    94.4     157.7      99.4      87.5      63.9      58.8      44.6    0.000     0.000     0.000     0.000     0.000    0.34     0.00    0.00      0   -9.90   -9.00       24.0       29.0       29.0       29.0       29.0       29.0       29.0       29.0       29.0       29.0       29.0       29.0        0.0        0.0        0.0        0.0        0.0        0.0        0.0        0.0        0.0        0.0        0.0        0.0      1.9       3.2      10.0      16.0      22.1    398.82
    23     5  2014     3     2     864.3     2.4      0.0    0.0    2.4    0.0      0.0      0.0   -9.90      2.8      2.7    100      0.3      0.3   100      3.1     3.1     100      9.4    0.38     -9      0      0      0      0     6.4     6.4      0     0.12      0.3      0.3      0.3   100    16.1     0.054     2.1    0.001    0.006      96        0.01    0.000    0.000     864.3    864.3    0.38   105.0     175.6     110.7      96.5      70.5      64.9      49.6    0.000     0.000     0.000     0.000     0.000    0.38     0.00    0.00      0   -9.90   -9.00       23.3       29.0       29.0       29.0       29.0       29.0       29.0       29.0       29.0       29.0       29.0       29.0        0.0        0.0        0.0        0.0        0.0        0.0        0.0        0.0        0.0        0.0        0.0        0.0      2.4       2.8      10.8      14.4      18.0    398.82
    24     5  2014     4     2     862.1     1.2      0.0    0.0    1.2    0.0      0.0      0.0   -9.90      3.2      3.0     92      0.4      0.4   100      3.6     3.4      93      9.8    0.42      0      0      0      0      0     7.0     7.0      0     0.13      0.4      0.4      0.4   100    16.1     0.075     3.7    0.003    0.014      94        0.02    0.000    0.000     862.1    862.1    0.42   113.3     192.3     121.2     106.9      78.1      71.8      54.3    0.000     0.000     0.000     0.000     0.000    0.42     0.00    0.00      0   -9.90   -9.00       21.1       29.0       29.0       29.0       29.0       29.0       29.0       29.0       29.0       29.0       29.0       29.0        0.0        0.0        0.0        0.0        0.0        0.0        0.0        0.0        0.0        0.0        0.0        0.0      1.2       3.3       8.8      14.8      20.7    398.82
    25     5  2014     5     2     859.8     1.3      0.0    0.0    1.3    0.0      0.0      0.0   -9.90      3.6      3.0     85      0.5      0.5   100      4.1     3.6      87     10.9    0.46      0      0      0      0      0     7.7     7.7      0     0.14      0.5      0.5      0.5   100    16.1     0.098     6.3    0.006    0.031      93        0.04    0.000    0.000     859.8    859.8    0.46   121.8     209.4     132.0     117.5      85.8      78.9      59.2    0.000     0.000     0.000     0.000     0.000    0.46     0.00    0.00      0   -9.90   -9.00       18.8       29.0       29.0       29.0       29.0       29.0       29.0       29.0       29.0       29.0       29.0       29.0        0.0        0.0        0.0        0.0        0.0        0.0        0.0        0.0        0.0        0.0        0.0        0.0      1.3       3.7       7.8      15.9      24.0    398.82
    26     5  2014     6     2     858.5     1.2      0.0    0.0    1.2    0.0      0.0      0.0   -9.90      2.7      2.1     76      0.5      0.5   100      3.2     2.6      80     13.2    0.50      0      0      0      0      0     8.7     8.7      0     0.16      0.5      0.5      0.5   100    16.1     0.124    10.4    0.013    0.065      91        0.07    0.000    0.000     858.5    858.5    0.50   132.5     228.5     144.0     125.9      91.9      84.6      64.6    0.000     0.000     0.000     0.000     0.000    0.50     0.00    0.00      0   -9.90   -9.00       17.5       29.0       29.0       29.0       29.0       29.0       29.0       29.0       29.0       29.0       29.0       29.0        0.0        0.0        0.0        0.0        0.0        0.0        0.0        0.0        0.0        0.0        0.0        0.0      1.2       2.9      13.0      18.2      23.4    398.82
    27     5  2014     7     2     857.9     2.4      0.0    0.0    2.4    0.0      0.0      0.0   -9.90      2.6      2.5     96      0.5      0.5   100      3.1     3.0      97     11.0    0.53      0      0      0      0      0     9.6     9.6      0     0.18      0.5      0.5      0.5   100    16.1     0.153    16.2    0.025    0.124      89        0.11    0.000    0.000     857.9    857.9    0.53   141.3     243.4     153.4     133.7      97.7      89.9      68.8    0.000     0.000     0.000     0.000     0.000    0.53     0.00    0.00      0   -9.90   -9.00       16.9       29.0       29.0       29.0       29.0       29.0       29.0       29.0       29.0       29.0       29.0       29.0        0.0        0.0        0.0        0.0        0.0        0.0        0.0        0.0        0.0        0.0        0.0        0.0      2.4       2.8       9.6      16.0      22.4    398.82
    28     5  2014     8     2     856.9     0.4      0.0    0.0    0.4    0.0      0.0      0.0   -9.90      1.8      1.0     56      0.4      0.4   100      2.2     1.4      63      6.9    0.55      0      0      0      0      0    10.2    10.2      6     0.19      0.4      0.4      0.4   100    16.1     0.182    22.9    0.042    0.208      88        0.17    0.000    0.000     856.9    856.9    0.55   146.0     252.3     159.1     136.0      99.4      91.7      71.3    0.000     0.000     0.000     0.000     0.000    0.55     0.00    0.00      0   -9.90   -9.00       15.9       29.0       29.0       29.0       29.0       29.0       29.0       29.0       29.0       29.0       29.0       29.0        0.0        0.0        0.0        0.0        0.0        0.0        0.0        0.0        0.0        0.0        0.0        0.0      0.4       2.0       7.7      11.9      16.1    398.82
    29     5  2014     9     2     855.2     0.0      0.0    0.0    0.0    0.0      0.0      0.0   -9.90      2.8      1.0     36      0.6      0.6   100      3.4     1.6      48      8.4    0.57      0      0      0      0      0    11.1    11.1      0     0.20      0.6      0.6      0.6   100    16.1     0.214    30.8    0.066    0.330      86        0.26    0.000    0.000     855.2    855.2    0.57   151.0     263.0     165.8     145.6     106.3      97.8      74.3    0.000     0.000     0.000     0.000     0.000    0.57     0.00    0.00      0   -9.90   -9.00       14.2       29.0       29.0       29.0       29.0       29.0       29.0       29.0       29.0       29.0       29.0       29.0        0.0        0.0        0.0        0.0        0.0        0.0        0.0        0.0        0.0        0.0        0.0        0.0      0.0       3.1       6.4      13.4      20.5    398.82
    30     5  2014    10     2     853.6     0.4      0.0    0.0    0.4    0.0      0.0      0.0   -9.90      3.3      1.2     37      0.8      0.8   100      4.1     2.0      50      9.3    0.60      0      0      0      0      0    12.0    12.0      0     0.22      0.8      0.8      0.8   100    16.1     0.250    38.6    0.096    0.482      85        0.35    0.000    0.000     853.6    853.6    0.60   156.6     274.3     172.9     154.0     112.4     103.3      77.5    0.000     0.000     0.000     0.000     0.000    0.60     0.00    0.00      0   -9.90   -9.00       13.0       28.7       29.0       29.0       29.0       29.0       29.0       29.0       29.0       29.0       29.0       29.0        0.0        0.0        0.0        0.0        0.0        0.0        0.0        0.0        0.0        0.0        0.0        0.0      0.4       3.7       8.3      14.3      20.3    398.82
    31     5  2014    11     2     851.8     0.2      0.0    0.0    0.2    0.0      0.0      0.0   -9.90      3.7      1.0     27      1.0      1.0   100      4.8     2.0      43      9.7    0.62      0      0      0      0      0    13.1    13.1      0     0.24      1.0      1.0      1.0   100    16.1     0.288    45.7    0.132    0.659      84        0.44    0.000    0.000     851.8    851.8    0.62   161.9     285.7     180.1     162.6     118.6     109.0      80.7    0.000     0.000     0.000     0.000     0.000    0.62     0.00    0.00      0   -9.90   -9.00       12.2       28.1       29.0       29.0       29.0       29.0       29.0       29.0       29.0       29.0       29.0       29.0        0.0        0.0        0.0        0.0        0.0        0.0        0.0        0.0        0.0        0.0        0.0        0.0      0.2       4.3       7.6      14.7      21.7    398.82
     1     6  2014    12     2     849.9     0.0      0.0    0.0    0.0    0.0      0.0      0.0   -9.90      3.7      0.7     19      1.1      1.1   100      4.9     1.9      38     10.4    0.65      0      0      0      0      0    14.4    14.4      0     0.26      1.1      1.1      1.1   100    16.1     0.330    52.1    0.172    0.860      82        0.55    0.000    0.000     849.9    849.9    0.65   167.6     297.6     187.6     169.8     123.9     113.7      84.1    0.000     0.000     0.000     0.000     0.000    0.65     0.00    0.00      0   -9.90   -9.00       11.5       27.3       29.0       29.0       29.0       29.0       29.0       29.0       29.0       29.0       29.0       29.0        0.0        0.0        0.0        0.0        0.0        0.0        0.0        0.0        0.0        0.0        0.0        0.0      0.0       4.4       7.8      15.4      23.0    398.82
     2     6  2014    13     2     848.1     0.5      0.0    0.0    0.5    0.0      0.0      0.0   -9.90      3.6      1.0     28      1.3      1.3   100      4.9     2.3      47     13.8    0.68      0      0      0      0      0    16.4    16.4      0     0.29      1.3      1.3      1.3   100    16.1     0.377    58.1    0.219    1.095      81        0.65    0.000    0.000     848.1    848.1    0.68   175.4     312.9     197.3     178.5     130.2     119.6      88.4    0.000     0.000     0.000     0.000     0.000    0.68     0.00    0.00      0   -9.90   -9.00       11.0       26.4       29.0       29.0       29.0       29.0       29.0       29.0       29.0       29.0       29.0       29.0        0.0        0.0        0.0        0.0        0.0        0.0        0.0        0.0        0.0        0.0        0.0        0.0      0.5       4.4      10.9      18.8      26.8    398.82
     3     6  2014    14     2     856.5    10.5      0.0    0.0   10.5    0.0      0.0      0.0   -9.90      1.5      1.5    100      0.6      0.6   100      2.1     2.1     100     13.6    0.71      0      0      0      0      0    18.5    18.5      0     0.33      0.6      0.6      0.6   100    16.1     0.430    63.2    0.272    1.358      79        0.76    0.000    0.000     856.5    856.5    0.71   193.0     327.5     206.4     176.1     128.7     118.7      92.5    0.000     0.000     0.000     0.000     0.000    0.71     0.00    0.00      0   -9.90   -9.00       19.4       26.4       29.0       29.0       29.0       29.0       29.0       29.0       29.0       29.0       29.0       29.0        0.0        0.0        0.0        0.0        0.0        0.0        0.0        0.0        0.0        0.0        0.0        0.0     10.5       1.9      14.9      18.6      22.3    398.82
     4     6  2014    15     2     855.5     1.8      0.0    0.0    1.8    0.0      0.0      0.0   -9.90      2.0      1.9     96      0.9      0.9   100      2.9     2.8      97     10.1    0.73      0      0      0      0      0    20.3    20.3      0     0.35      0.9      0.9      0.9   100    16.1     0.487    67.5    0.329    1.643      78        0.85    0.000    0.000     855.5    855.5    0.73   198.6     337.9     213.0     184.8     135.0     124.4      95.5    0.000     0.000     0.000     0.000     0.000    0.73     0.00    0.00      0   -9.90   -9.00       18.4       26.4       29.0       29.0       29.0       29.0       29.0       29.0       29.0       29.0       29.0       29.0        0.0        0.0        0.0        0.0        0.0        0.0        0.0        0.0        0.0        0.0        0.0        0.0      1.8       2.6       9.5      15.1      20.6    398.82
     5     6  2014    16     2     855.8     2.4      0.0    0.0    2.4    0.0      0.0      0.0   -9.90      1.4      1.4    100      0.7      0.7   100      2.1     2.1     100      8.4    0.75      0      0      0      0      0    21.9    21.9      0     0.38      0.7      0.7      0.7   100    16.1     0.548    71.1    0.390    1.948      76        0.95    0.000    0.000     855.8    855.8    0.75   204.2     346.4     218.4     186.3     136.2     125.6      97.9    0.000     0.000     0.000     0.000     0.000    0.75     0.00    0.00      0   -9.90   -9.00       18.6       26.4       29.0       29.0       29.0       29.0       29.0       29.0       29.0       29.0       29.0       29.0        0.0        0.0        0.0        0.0        0.0        0.0        0.0        0.0        0.0        0.0        0.0        0.0      2.4       1.9      10.5      13.4      16.2    398.82
     6     6  2014    17     2     853.5     0.2      0.0    0.0    0.2    0.0      0.0      0.0   -9.90      2.3      1.2     50      1.4      1.4   100      3.7     2.5      69     10.3    0.78      0      0      0      0      0    24.1    24.1      0     0.41      1.4      1.4      1.4   100    16.1     0.614    74.2    0.456    2.278      75        1.05    0.000    0.000     853.5    853.5    0.78   208.4     356.8     224.9     198.4     144.9     133.3     100.8    0.000     0.000     0.000     0.000     0.000    0.78     0.00    0.00      0   -9.90   -9.00       16.3       26.4       29.0       29.0       29.0       29.0       29.0       29.0       29.0       29.0       29.0       29.0        0.0        0.0        0.0        0.0        0.0        0.0        0.0        0.0        0.0        0.0        0.0        0.0      0.2       3.3       8.7      15.3      21.9    398.82
     7     6  2014    18     2     850.2     0.0      0.0    0.0    0.0    0.0      0.0      0.0   -9.90      3.2      1.0     32      2.2      2.2   100      5.5     3.3      60     13.8    0.80      0      0      0      0      0    27.3    27.3      0     0.46      2.2      2.2      2.2   100    16.1     0.687    77.0    0.529    2.645      74        1.13    0.000    0.000     850.2    850.2    0.80   213.6     370.2     233.4     213.6     155.8     143.0     104.6    0.000     0.000     0.000     0.000     0.000    0.80     0.00    0.00      0   -9.90   -9.00       13.9       25.9       29.0       29.0       29.0       29.0       29.0       29.0       29.0       29.0       29.0       29.0        0.0        0.0        0.0        0.0        0.0        0.0        0.0        0.0        0.0        0.0        0.0        0.0      0.0       4.9      10.4      18.8      27.1    398.82
     8     6  2014    19     2     847.8     0.0      0.0    0.0    0.0    0.0      0.0      0.0   -9.90      2.3      0.5     21      1.9      1.9   100      4.2     2.4      57     13.0    0.83      0      0      0      0      0    30.6    30.6      0     0.50      1.9      1.9      1.9   100    16.0     0.768    79.4    0.610    3.049      73        1.24    0.000    0.000     847.8    847.8    0.83   219.0     382.6     241.2     215.3     157.1     144.4     108.1    0.000     0.000     0.000     0.000     0.000    0.83     0.00    0.00      0   -9.90   -9.00       13.0       24.9       29.0       29.0       29.0       29.0       29.0       29.0       29.0       29.0       29.0       29.0        0.0        0.0        0.0        0.0        0.0        0.0        0.0        0.0        0.0        0.0        0.0        0.0      0.0       3.8      10.7      18.0      25.3    398.82
     9     6  2014    20     2     844.9     0.2      0.0    0.0    0.2    0.0      0.0      0.0   -9.90      2.6      0.6     23      2.5      2.5   100      5.1     3.1      61     14.4    0.86      0      0      0      0      0    33.8    33.8      0     0.55      2.5      2.5      2.5   100    16.0     0.856    81.5    0.698    3.488      72        1.34    0.000    0.000     844.9    844.9    0.86   224.6     396.1     249.7     227.0     165.6     152.0     111.9    0.000     0.000     0.000     0.000     0.000    0.86     0.00    0.00      0   -9.90   -9.00       12.6       23.2       29.0       29.0       29.0       29.0       29.0       29.0       29.0       29.0       29.0       29.0        0.0        0.0        0.0        0.0        0.0        0.0        0.0        0.0        0.0        0.0        0.0        0.0      0.2       4.6      14.8      19.4      24.0    398.82
    10     6  2014    21     2     842.1     1.1      0.0    0.0    1.1    0.0      0.0      0.0   -9.90      2.4      1.3     53      2.6      2.6   100      5.0     3.9      78     14.5    0.89      0      0      0      0      0    36.7    36.7      0     0.58      2.6      2.6      2.6   100    16.0     0.949    83.3    0.791    3.955      71        1.41    0.000    0.000     842.1    842.1    0.89   230.1     409.3     258.0     234.0     170.7     156.8     115.7    0.000     0.000     0.000     0.000     0.000    0.89     0.00    0.00      0   -9.90   -9.00       12.4       21.5       29.0       29.0       29.0       29.0       29.0       29.0       29.0       29.0       29.0       29.0        0.0        0.0        0.0        0.0        0.0        0.0        0.0        0.0        0.0        0.0        0.0        0.0      1.1       4.5      14.5      19.5      24.4    398.82
    11     6  2014    22     2     853.6    13.9      0.0    0.0   13.9    0.0      0.0      0.0   -9.90      1.1      1.1    100      1.3      1.3   100      2.4     2.4     100     10.8    0.91      0      0      0      0      0    38.6    38.6      0     0.61      1.3      1.3      1.3   100    16.0     1.046    84.9    0.888    4.441      71        1.52    0.000    0.000     853.6    853.6    0.91   247.8     419.0     264.1     226.4     165.5     152.5     118.4    0.000     0.000     0.000     0.000     0.000    0.91     0.00    0.00      0   -9.90   -9.00       23.9       21.5       29.0       29.0       29.0       29.0       29.0       29.0       29.0       29.0       29.0       29.0        0.0        0.0        0.0        0.0        0.0        0.0        0.0        0.0        0.0        0.0        0.0        0.0     13.9       2.1      12.8      15.8      18.8    398.82
    12     6  2014    23     2     872.3    20.4      0.0    0.0   20.0    0.4      0.0      0.0   -9.90      0.6      0.6    100      0.8      0.8   100      1.3     1.3     100     12.0    0.93      0      0      0      0      0    40.5    40.5      0     0.63      0.8      0.8      0.8   100    16.0     1.147    86.2    0.989    4.945      70        1.65    0.000    0.000     872.3    872.3    0.93   273.1     429.6     270.8     227.1     166.1     153.3     121.4    0.000     0.000     0.000     0.000     0.000    0.93     0.00    0.00      0   -9.90   -9.00       42.6       21.5       29.0       29.0       29.0       29.0       29.0       29.0       29.0       29.0       29.0       29.0        0.0        0.0        0.0        0.0        0.0        0.0        0.0        0.0        0.0        0.0        0.0        0.0     20.4       1.2      13.9      17.0      20.2    398.82
    13     6  2014    24     2     884.9    17.4      0.0    0.0   16.2    1.2      1.5      0.0   -9.90      0.9      0.9    100      1.2      1.2   100      2.1     2.1     100     13.4    0.96      0      0      0      0      0    42.4    42.4      0     0.65      1.2      1.2      1.2   100    16.0     1.251    87.4    1.093    5.467      70        1.76    0.000    0.000     884.9    884.9    0.96   292.9     441.3     278.2     237.3     173.5     159.9     124.7    0.000     0.000     0.000     0.000     0.000    0.96     0.00    0.00      0   -9.90   -9.00       43.1       29.1       29.1       29.0       29.0       29.0       29.0       29.0       29.0       29.0       29.0       29.0        0.0        0.0        0.0        0.0        0.0        0.0        0.0        0.0        0.0        0.0        0.0        0.0     17.4       1.9      15.1      18.4      21.7    398.82
    14     6  2014    25     2     874.4     3.8      0.0    0.0    3.8    0.0     11.4      0.0   -9.90      1.2      1.2    100      1.7      1.7   100      2.9     2.9     100      9.4    0.98      0      0      0      0      0    43.6    43.6      0     0.67      1.7      1.7      1.7   100    16.0     1.358    88.4    1.200    5.999      69        1.85    0.000    0.000     874.4    874.4    0.98   286.4     449.3     283.3     245.8     179.5     165.3     127.0    0.000     0.000     0.000     0.000     0.000    0.98     0.00    0.00      0   -9.90   -9.00       30.1       29.4       29.3       29.2       29.2       29.1       29.1       29.1       29.1       29.1       29.0       29.0        0.0        0.0        0.0        0.0        0.0        0.0        0.0        0.0        0.0        0.0        0.0        0.0      3.8       2.6      11.0      14.4      17.8    398.82
    15     6  2014    26     2     866.1     0.1      0.0    0.0    0.1    0.0      3.6      0.0   -9.90      2.0      1.8     90      3.0      3.0   100      4.9     4.8      96     10.3    1.00      0      0      0      0      0    44.8    44.8      0     0.68      3.0      3.0      3.0   100    15.9     1.466    89.2    1.308    6.542      69        1.88    0.000    0.000     866.1    866.1    1.00   284.5     458.0     288.7     261.3     190.6     175.1     129.4    0.000     0.000     0.000     0.000     0.000    1.00     0.00    0.00      0   -9.90   -9.00       25.2       28.5       29.1       29.0       29.0       29.0       29.0       29.0       29.0       29.0       29.0       29.0        0.0        0.0        0.0        0.0        0.0        0.0        0.0        0.0        0.0        0.0        0.0        0.0      0.1       4.4       8.9      15.3      21.7    398.82
    16     6  2014    27     2     862.1     0.2      0.0    0.0    0.2    0.0      0.6      0.0   -9.90      1.4      1.3     94      2.3      2.3   100      3.7     3.6      98     11.0    1.02      0      0      0      0      0    46.0    46.0      0     0.69      2.3      2.3      2.3   100    15.9     1.577    90.0    1.419    7.094      69        1.94    0.000    0.000     862.1    862.1    1.02   286.6     467.2     294.5     259.8     189.7     174.5     132.0    0.000     0.000     0.000     0.000     0.000    1.02     0.00    0.00      0   -9.90   -9.00       22.0       28.4       29.0       29.0       29.0       29.0       29.0       29.0       29.0       29.0       29.0       29.0        0.0        0.0        0.0        0.0        0.0        0.0        0.0        0.0        0.0        0.0        0.0        0.0      0.2       3.3      10.0      16.0      22.0    398.82
    17     6  2014    28     2     869.0    11.0      0.0    0.0   11.0    0.0      0.1      0.0   -9.90      1.5      1.5    100      2.6      2.6   100      4.1     4.1     100     14.2    1.04      0      0      0      0      0    47.3    47.3      0     0.71      2.6      2.6      2.6   100    15.9     1.690    90.6    1.532    7.658      69        1.98    0.000    0.000     869.0    869.0    1.04   300.9     478.9     301.9     268.2     195.8     180.0     135.4    0.000     0.000     0.000     0.000     0.000    1.04     0.00    0.00      0   -9.90   -9.00       29.4       28.1       29.0       29.0       29.0       29.0       29.0       29.0       29.0       29.0       29.0       29.0        0.0        0.0        0.0        0.0        0.0        0.0        0.0        0.0        0.0        0.0        0.0        0.0     11.0       3.6      11.9      19.2      26.6    398.82
    18     6  2014    29     2     868.8     4.1      0.0    0.0    4.1    0.0      0.0      0.0   -9.90      1.5      1.5    100      2.7      2.7   100      4.3     4.3     100     13.8    1.07      0      0      0      0      0    48.5    48.5      0     0.72      2.7      2.7      2.7   100    15.9     1.804    91.2    1.646    8.230      69        2.02    0.000    0.000     868.8    868.8    1.07   307.8     490.1     309.0     275.7     201.3     185.0     138.5    0.000     0.000     0.000     0.000     0.000    1.07     0.00    0.00      0   -9.90   -9.00       29.5       27.9       29.0       29.0       29.0       29.0       29.0       29.0       29.0       29.0       29.0       29.0        0.0        0.0        0.0        0.0        0.0        0.0        0.0        0.0        0.0        0.0        0.0        0.0      4.1       3.8      13.9      18.8      23.6    398.82
    19     6  2014    30     2     863.8     0.2      0.0    0.0    0.2    0.0      0.0      0.0   -9.90      1.9      1.7     93      3.4      3.4   100      5.3     5.2      98     10.9    1.08      0      0      0      0      0    49.3    49.3      0     0.73      3.4      3.4      3.4   100    15.8     1.920    91.8    1.762    8.808      69        2.03    0.000    0.000     863.8    863.8    1.08   308.3     498.8     314.5     286.5     209.0     191.8     141.0    0.000     0.000     0.000     0.000     0.000    1.08     0.00    0.00      0   -9.90   -9.00       25.4       27.3       29.0       29.0       29.0       29.0       29.0       29.0       29.0       29.0       29.0       29.0        0.0        0.0        0.0        0.0        0.0        0.0        0.0        0.0        0.0        0.0        0.0        0.0      0.2       4.7      11.0      15.9      20.8    398.82
    20     6  2014    31     2     859.5     0.1      0.0    0.0    0.1    0.0      0.0      0.0   -9.90      1.6      1.5     91      3.0      3.0   100      4.6     4.5      97      9.4    1.10      0      0      0      0      0    49.9    49.9      0     0.74      3.0      3.0      3.0   100    15.8     2.036    92.2    1.878    9.391      69        2.06    0.000    0.000     859.5    859.5    1.10   308.7     506.3     319.2     286.8     209.3     192.3     143.1    0.000     0.000     0.000     0.000     0.000    1.10     0.00    0.00      0   -9.90   -9.00       21.9       26.7       29.0       29.0       29.0       29.0       29.0       29.0       29.0       29.0       29.0       29.0        0.0        0.0        0.0        0.0        0.0        0.0        0.0        0.0        0.0        0.0        0.0        0.0      0.1       4.1       8.7      14.4      20.1    398.82
    21     6  2014    32     2     856.0     0.0      0.0    0.0    0.0    0.0      0.0      0.0   -9.90      1.4      0.8     56      2.7      2.7   100      4.1     3.4      85     11.8    1.12      0      0      0      0      0    50.6    50.6      0     0.75      2.7      2.7      2.7   100    15.8     2.154    92.7    1.996    9.978      69        2.11    0.000    0.000     856.0    856.0    1.12   311.0     515.5     325.0     288.7     210.8     193.8     145.7    0.000     0.000     0.000     0.000     0.000    1.12     0.00    0.00      0   -9.90   -9.00       19.0       26.3       29.0       29.0       29.0       29.0       29.0       29.0       29.0       29.0       29.0       29.0        0.0        0.0        0.0        0.0        0.0        0.0        0.0        0.0        0.0        0.0        0.0        0.0      0.0       3.6      12.0      16.8      21.5    398.82
    22     6  2014    33     2     851.8     0.0      0.0    0.0    0.0    0.0      0.0      0.0   -9.90      1.8      0.6     36      3.5      3.5   100      5.3     4.2      79     13.7    1.14      0      0      0      0      0    51.4    51.4      0     0.75      3.5      3.5      3.5   100    15.7     2.272    93.0    2.114   10.570      69        2.14    0.000    0.000     851.8    851.8    1.14   313.6     526.2     331.7     302.2     220.4     202.4     148.7    0.000     0.000     0.000     0.000     0.000    1.14     0.00    0.00      0   -9.90   -9.00       16.4       25.3       29.0       29.0       29.0       29.0       29.0       29.0       29.0       29.0       29.0       29.0        0.0        0.0        0.0        0.0        0.0        0.0        0.0        0.0        0.0        0.0        0.0        0.0      0.0       4.7      12.5      18.7      24.9    398.82
    23     6  2014    34     2     848.5     0.0      0.0    0.0    0.0    0.0      0.0      0.0   -9.90      1.5      0.3     23      3.0      3.0   100      4.5     3.4      75     12.7    1.16      0      0      0      0      0    52.0    52.0      0     0.76      3.0      3.0      3.0   100    15.7     2.391    93.4    2.233   11.166      68        2.18    0.000    0.000     848.5    848.5    1.16   316.3     535.9     337.8     302.9     221.1     203.1     151.4    0.000     0.000     0.000     0.000     0.000    1.16     0.00    0.00      0   -9.90   -9.00       14.3       24.5       29.0       29.0       29.0       29.0       29.0       29.0       29.0       29.0       29.0       29.0        0.0        0.0        0.0        0.0        0.0        0.0        0.0        0.0        0.0        0.0        0.0        0.0      0.0       4.0      11.5      17.7      23.9    398.82
    24     6  2014    35     2     877.4    30.4      0.0    0.0   30.3    0.1      0.0      0.0   -9.90      0.4      0.4    100      0.9      0.9   100      1.4     1.4     100     14.3    1.19      0      0      0      0      0    52.6    52.6      0     0.77      0.9      0.9      0.9   100    15.6     2.511    93.7    2.353   11.765      68        2.27    0.000    0.000     877.4    877.4    1.19   352.1     546.8     344.7     289.1     211.4     195.2     154.5    0.000     0.000     0.000     0.000     0.000    1.19     0.00    0.00      0   -9.90   -9.00       43.2       24.5       29.0       29.0       29.0       29.0       29.0       29.0       29.0       29.0       29.0       29.0        0.0        0.0        0.0        0.0        0.0        0.0        0.0        0.0        0.0        0.0        0.0        0.0     30.4       1.2      16.3      19.3      22.4    398.82
    25     6  2014    36     2     872.3     3.4      0.0    0.0    3.4    0.0      5.3      0.0   -9.90      1.0      1.0    100      2.2      2.2   100      3.2     3.2     100     14.5    1.21      0      0      0      0      0    53.1    53.1      0     0.77      2.2      2.2      2.2   100    15.6     2.632    94.0    2.473   12.367      68        2.32    0.000    0.000     872.3    872.3    1.21   353.4     557.6     351.6     306.5     223.9     206.1     157.6    0.000     0.000     0.000     0.000     0.000    1.21     0.00    0.00      0   -9.90   -9.00       29.5       29.3       29.2       29.1       29.1       29.1       29.0       29.0       29.0       29.0       29.0       29.0        0.0        0.0        0.0        0.0        0.0        0.0        0.0        0.0        0.0        0.0        0.0        0.0      3.4       2.8      16.7      19.5      22.3    398.82
    26     6  2014    37     2     865.7     0.2      0.0    0.0    0.2    0.0      1.9      0.0   -9.90      1.6      1.5     93      3.5      3.5   100      5.1     5.0      98     15.2    1.24      0      0      0      0      0    53.6    53.6      0     0.78      3.5      3.5      3.5   100    15.5     2.752    94.3    2.594   12.971      68        2.32    0.000    0.000     865.7    865.7    1.24   354.2     568.9     358.7     325.3     237.3     217.9     160.8    0.000     0.000     0.000     0.000     0.000    1.24     0.00    0.00      0   -9.90   -9.00       25.6       28.1       29.0       29.0       29.0       29.0       29.0       29.0       29.0       29.0       29.0       29.0        0.0        0.0        0.0        0.0        0.0        0.0        0.0        0.0        0.0        0.0        0.0        0.0      0.2       4.5      15.4      20.2      25.1    398.82
    27     6  2014    38     2     859.7     0.4      0.0    0.0    0.4    0.0      0.3      0.0   -9.90      1.9      1.8     93      4.3      4.3   100      6.2     6.1      98     16.9    1.26      0      0      0      0      0    54.1    54.1      0     0.78      4.3      4.3      4.3   100    15.5     2.874    94.5    2.715   13.577      68        2.31    0.000    0.000     859.7    859.7    1.26   356.1     581.2     366.4     339.9     247.8     227.2     164.3    0.000     0.000     0.000     0.000     0.000    1.26     0.00    0.00      0   -9.90   -9.00       22.2       26.7       29.0       29.0       29.0       29.0       29.0       29.0       29.0       29.0       29.0       29.0        0.0        0.0        0.0        0.0        0.0        0.0        0.0        0.0        0.0        0.0        0.0        0.0      0.4       5.5      13.7      22.4      31.0    398.82
    28     6  2014    39     2     855.1     0.2      0.0    0.0    0.2    0.0      0.0      0.0   -9.90      1.5      1.3     82      3.5      3.5   100      5.1     4.8      95     15.0    1.29      0      0      0      0      0    54.5    54.5      0     0.79      3.5      3.5      3.5   100    15.4     2.995    94.7    2.837   14.184      68        2.31    0.000    0.000     855.1    855.1    1.29   358.3     592.1     373.3     338.5     247.0     226.8     167.3    0.000     0.000     0.000     0.000     0.000    1.29     0.00    0.00      0   -9.90   -9.00       19.0       25.7       29.0       29.0       29.0       29.0       29.0       29.0       29.0       29.0       29.0       29.0        0.0        0.0        0.0        0.0        0.0        0.0        0.0        0.0        0.0        0.0        0.0        0.0      0.2       4.5      13.4      20.0      26.7    398.82
    29     6  2014    40     2     850.6     0.3      0.0    0.0    0.3    0.0      0.0      0.0   -9.90      1.7      0.9     56      3.9      3.9   100      5.5     4.8      87     18.0    1.32      0      0      0      0      0    54.9    54.9      0     0.79      3.9      3.9      3.9   100    15.4     3.116    94.9    2.958   14.792      68        2.32    0.000    0.000     850.6    850.6    1.32   361.9     604.9     381.4     349.0     254.6     233.6     171.0    0.000     0.000     0.000     0.000     0.000    1.32     0.00    0.00      0   -9.90   -9.00       16.3       24.5       29.0       29.0       29.0       29.0       29.0       29.0       29.0       29.0       29.0       29.0        0.0        0.0        0.0        0.0        0.0        0.0        0.0        0.0        0.0        0.0        0.0        0.0      0.3       4.9      17.2      23.0      28.8    398.82
    30     6  2014    41     2     846.9     0.2      0.0    0.0    0.2    0.0      0.0      0.0   -9.90      1.4      0.5     39      3.3      3.3   100      4.7     3.9      82     19.8    1.35      0      0      0      0      0    55.2    55.2      0     0.79      3.3      3.3      3.3   100    15.3     3.238    95.1    3.080   15.400      68        2.35    0.000    0.000     846.9    846.9    1.35   367.0     618.9     390.2     351.4     256.4     235.6     174.9    0.000     0.000     0.000     0.000     0.000    1.35     0.00    0.00      0   -9.90   -9.00       14.2       23.4       29.0       29.0       29.0       29.0       29.0       29.0       29.0       29.0       29.0       29.0        0.0        0.0        0.0        0.0        0.0        0.0        0.0        0.0        0.0        0.0        0.0        0.0      0.2       4.2      20.6      24.8      29.0    398.82
     1     7  2014    42     2     843.5     1.2      0.0    0.0    1.2    0.0      0.0      0.0   -9.90      1.4      1.2     89      3.3      3.3   100      4.7     4.6      97     19.4    1.37      0      0      0      0      0    55.5    55.5      0     0.80      3.3      3.3      3.3   100    15.3     3.360    95.3    3.202   16.008      68        2.36    0.000    0.000     843.5    843.5    1.37   372.2     632.4     398.7     359.1     262.0     240.7     178.7    0.000     0.000     0.000     0.000     0.000    1.37     0.00    0.00      0   -9.90   -9.00       13.2       21.9       29.0       29.0       29.0       29.0       29.0       29.0       29.0       29.0       29.0       29.0        0.0        0.0        0.0        0.0        0.0        0.0        0.0        0.0        0.0        0.0        0.0        0.0      1.2       4.2      19.6      24.4      29.2    398.82
     2     7  2014    43     2     841.7     2.6      0.0    0.0    2.6    0.0      0.0      0.0   -9.90      1.3      1.3    100      3.1      3.1   100      4.4     4.4     100     17.5    1.40      0      0      0      0      0    55.7    55.7      0     0.80      3.1      3.1      3.1   100    15.2     3.481    95.5    3.323   16.615      68        2.37    0.000    0.000     841.7    841.7    1.40   378.0     644.4     406.3     363.4     265.2     243.8     182.1    0.000     0.000     0.000     0.000     0.000    1.40     0.00    0.00      0   -9.90   -9.00       13.3       20.6       29.0       29.0       29.0       29.0       29.0       29.0       29.0       29.0       29.0       29.0        0.0        0.0        0.0        0.0        0.0        0.0        0.0        0.0        0.0        0.0        0.0        0.0      2.6       3.9      17.8      22.5      27.3    398.82
     3     7  2014    44     2     841.4     2.5      0.0    0.0    2.5    0.0      0.0      0.0   -9.90      0.8      0.8    100      2.0      2.0   100      2.8     2.8     100     13.0    1.42      0      0      0      0      0    55.9    55.9      0     0.80      2.0      2.0      2.0   100    15.1     3.602    95.6    3.444   17.221      68        2.41    0.000    0.000     841.4    841.4    1.42   383.2     653.2     411.8     356.4     260.4     239.9     184.6    0.000     0.000     0.000     0.000     0.000    1.42     0.00    0.00      0   -9.90   -9.00       13.5       20.3       29.0       29.0       29.0       29.0       29.0       29.0       29.0       29.0       29.0       29.0        0.0        0.0        0.0        0.0        0.0        0.0        0.0        0.0        0.0        0.0        0.0        0.0      2.5       2.5      13.1      18.0      22.8    398.82
     4     7  2014    45     2     838.6     0.4      0.0    0.0    0.4    0.0      0.0      0.0   -9.90      1.1      0.5     45      2.6      2.6   100      3.7     3.1      84     11.8    1.44     -9      0      0      0      0    56.0    56.0      0     0.80      2.6      2.6      2.6   100    15.1     3.723    95.8    3.565   17.825      68        2.44    0.000    0.000     838.6    838.6    1.44   385.5     661.2     416.8     367.7     268.5     247.0     186.9    0.000     0.000     0.000     0.000     0.000    1.44     0.00    0.00      0   -9.90   -9.00       13.0       18.8       29.0       29.0       29.0       29.0       29.0       29.0       29.0       29.0       29.0       29.0        0.0        0.0        0.0        0.0        0.0        0.0        0.0        0.0        0.0        0.0        0.0        0.0      0.4       3.3      11.9      16.8      21.6    398.82
     5     7  2014    46     2     834.9     0.1      0.0    0.0    0.1    0.0      0.0      0.0   -9.90      1.5      0.2     16      3.6      3.6   100      5.1     3.8      76     13.1    1.46     -9      0      0      0      0    56.1    56.1      0     0.80      3.6      3.6      3.6   100    15.0     3.843    95.9    3.685   18.426      68        2.46    0.000    0.000     834.9    834.9    1.46   387.3     670.0     422.4     383.1     279.5     256.6     189.3    0.000     0.000     0.000     0.000     0.000    1.46     0.00    0.00      0   -9.90   -9.00       12.8       16.8       28.6       29.0       29.0       29.0       29.0       29.0       29.0       29.0       29.0       29.0        0.0        0.0        0.0        0.0        0.0        0.0        0.0        0.0        0.0        0.0        0.0        0.0      0.1       4.5      11.4      18.1      24.9    398.82
     6     7  2014    47     2     831.5     1.0      0.0    0.0    1.0    0.0      0.0      0.0   -9.90      1.4      1.0     75      3.4      3.4   100      4.7     4.4      93     15.0    1.48     -9      0      0      0      0    56.2    56.2      0     0.80      3.4      3.4      3.4   100    14.9     3.963    96.0    3.805   19.026      68        2.46    0.000    0.000     831.5    831.5    1.48   390.2     680.0     428.7     386.1     281.8     258.8     192.2    0.000     0.000     0.000     0.000     0.000    1.48     0.00    0.00      0   -9.90   -9.00       12.8       15.0       28.1       29.0       29.0       29.0       29.0       29.0       29.0       29.0       29.0       29.0        0.0        0.0        0.0        0.0        0.0        0.0        0.0        0.0        0.0        0.0        0.0        0.0      1.0       4.2      14.1      20.0      26.0    398.82
     7     7  2014    48     2     835.4     5.6      0.0    0.0    5.6    0.0      0.0      0.0   -9.90      0.5      0.5    100      1.2      1.2   100      1.7     1.7     100     15.0    1.50     -9      0      0      0      0    56.3    56.3      0     0.80      1.2      1.2      1.2   100    14.9     4.083    96.1    3.925   19.623      68        2.51    0.000    0.000     835.4    835.4    1.50   400.3     689.9     434.9     367.5     268.7     247.9     195.0    0.000     0.000     0.000     0.000     0.000    1.50     0.00    0.00      0   -9.90   -9.00       16.7       15.0       28.1       29.0       29.0       29.0       29.0       29.0       29.0       29.0       29.0       29.0        0.0        0.0        0.0        0.0        0.0        0.0        0.0        0.0        0.0        0.0        0.0        0.0      5.6       1.5      15.9      20.0      24.2    398.82
     8     7  2014    49     2     849.0    17.8      0.0    0.0   17.8    0.0      0.0      0.0   -9.90      1.2      1.2    100      3.0      3.0   100      4.2     4.2     100     16.1    1.52     -9      0      0      0      0    56.4    56.4      0     0.80      3.0      3.0      3.0   100    14.8     4.202    96.2    4.043   20.217      68        2.52    0.000    0.000     849.0    849.0    1.52   420.6     700.4     441.6     393.2     287.0     263.8     197.9    0.000     0.000     0.000     0.000     0.000    1.52     0.00    0.00      0   -9.90   -9.00       31.2       14.4       28.1       29.0       29.0       29.0       29.0       29.0       29.0       29.0       29.0       29.0        0.0        0.0        0.0        0.0        0.0        0.0        0.0        0.0        0.0        0.0        0.0        0.0     17.8       3.7      15.3      21.1      26.9    398.82
     9     7  2014    50     2     848.6     3.1      0.0    0.0    3.1    0.0      0.0      0.0   -9.90      1.0      1.0    100      2.5      2.5   100      3.5     3.5     100     12.3    1.54     -9      0      0      0      0    56.5    56.5      0     0.80      2.5      2.5      2.5   100    14.7     4.320    96.3    4.162   20.809      68        2.54    0.000    0.000     848.6    848.6    1.54   425.2     708.4     446.6     392.1     286.3     263.5     200.2    0.000     0.000     0.000     0.000     0.000    1.54     0.00    0.00      0   -9.90   -9.00       29.1       15.5       28.1       29.0       29.0       29.0       29.0       29.0       29.0       29.0       29.0       29.0        0.0        0.0        0.0        0.0        0.0        0.0        0.0        0.0        0.0        0.0        0.0        0.0      3.1       3.1      13.4      17.3      21.2    398.82
    10     7  2014    51     2     843.7     0.0      0.0    0.0    0.0    0.0      0.0      0.0   -9.90      1.4      1.4    100      3.5      3.5   100      5.0     5.0     100     10.9    1.56     -9      0      0      0      0    56.5    56.5      0     0.80      3.5      3.5      3.5   100    14.6     4.438    96.4    4.279   21.397      68        2.54    0.000    0.000     843.7    843.7    1.56   424.7     715.4     451.0     408.1     297.8     273.4     202.2    0.000     0.000     0.000     0.000     0.000    1.56     0.00    0.00      0   -9.90   -9.00       25.5       14.7       28.1       29.0       29.0       29.0       29.0       29.0       29.0       29.0       29.0       29.0        0.0        0.0        0.0        0.0        0.0        0.0        0.0        0.0        0.0        0.0        0.0        0.0      0.0       4.4      10.7      15.9      21.1    398.82
    11     7  2014    52     2     839.0     0.0      0.0    0.0    0.0    0.0      0.0      0.0   -9.90      1.4      1.1     73      3.6      3.6   100      5.1     4.7      92     13.2    1.57     -9      0      0      0      0    56.6    56.6      0     0.80      3.6      3.6      3.6   100    14.5     4.555    96.5    4.397   21.983      68        2.53    0.000    0.000     839.0    839.0    1.57   425.3     723.9     456.4     413.9     301.9     277.2     204.6    0.000     0.000     0.000     0.000     0.000    1.57     0.00    0.00      0   -9.90   -9.00       22.3       13.7       28.1       29.0       29.0       29.0       29.0       29.0       29.0       29.0       29.0       29.0        0.0        0.0        0.0        0.0        0.0        0.0        0.0        0.0        0.0        0.0        0.0        0.0      0.0       4.5      12.2      18.2      24.2    398.82
    12     7  2014    53     2     835.1     0.0      0.0    0.0    0.0    0.0      0.0      0.0   -9.90      1.4      0.4     31      3.5      3.5   100      4.8     3.9      80     14.5    1.59     -9      0      0      0      0    56.6    56.6      0     0.81      3.5      3.5      3.5   100    14.5     4.671    96.6    4.513   22.565      68        2.54    0.000    0.000     835.1    835.1    1.59   427.3     733.1     462.2     417.2     304.5     279.6     207.2    0.000     0.000     0.000     0.000     0.000    1.59     0.00    0.00      0   -9.90   -9.00       19.7       13.1       27.8       29.0       29.0       29.0       29.0       29.0       29.0       29.0       29.0       29.0        0.0        0.0        0.0        0.0        0.0        0.0        0.0        0.0        0.0        0.0        0.0        0.0      0.0       4.3      13.0      19.5      26.1    398.82
    13     7  2014    54     2     848.2    14.7      0.0    0.0   14.7    0.0      0.0      0.0   -9.90      0.4      0.4    100      1.1      1.1   100      1.6     1.6     100     14.7    1.61     -9      0      0      0      0    56.6    56.6      0     0.81      1.1      1.1      1.1   100    14.4     4.787    96.7    4.629   23.143      67        2.59    0.000    0.000     848.2    848.2    1.61   446.3     742.4     468.0     394.5     288.5     266.1     209.8    0.000     0.000     0.000     0.000     0.000    1.61     0.00    0.00      0   -9.90   -9.00       32.9       13.1       27.8       29.0       29.0       29.0       29.0       29.0       29.0       29.0       29.0       29.0        0.0        0.0        0.0        0.0        0.0        0.0        0.0        0.0        0.0        0.0        0.0        0.0     14.7       1.4      16.0      19.7      23.4    398.82
    14     7  2014    55     2     845.7     1.6      0.0    0.0    1.6    0.0      0.0      0.0   -9.90      2.4      2.4     99      1.7      1.7   100      4.1     4.1      99     13.5    1.63      0      0      0      0      0    28.3    28.3      0     0.47      1.7      1.7      1.7   100    14.3     4.854    96.7    4.696   23.481      67        2.57    0.000    0.000     845.7    845.7    1.63   449.1     750.9     473.4     421.5     307.7     282.8     212.2    0.000     0.000     0.000     0.000     0.000    1.63     0.00    0.00      0   -9.90   -9.00       26.6       15.6       27.8       29.0       29.0       29.0       29.0       29.0       29.0       29.0       29.0       29.0        0.0        0.0        0.0        0.0        0.0        0.0        0.0        0.0        0.0        0.0        0.0        0.0      1.6       3.7      12.5      18.5      24.6    398.82
    15     7  2014    56     2     846.6     3.0      0.0    0.0    3.0    0.0      0.0      0.0   -9.90      1.1      1.1    100      1.0      1.0   100      2.1     2.1     100     13.7    1.65      0      0      0      0      0    31.7    31.7      0     0.52      1.0      1.0      1.0   100    14.3     4.928    96.8    4.770   23.849      66        2.58    0.000    0.000     846.6    846.6    1.65   455.4     759.4     478.8     408.5     298.6     275.3     214.6    0.000     0.000     0.000     0.000     0.000    1.65     0.00    0.00      0   -9.90   -9.00       27.5       15.6       27.8       29.0       29.0       29.0       29.0       29.0       29.0       29.0       29.0       29.0        0.0        0.0        0.0        0.0        0.0        0.0        0.0        0.0        0.0        0.0        0.0        0.0      3.0       1.9      14.6      18.7      22.8    398.82
    16     7  2014    57     2     844.4     1.4      0.0    0.0    1.4    0.0      0.0      0.0   -9.90      1.9      1.8     95      1.8      1.8   100      3.7     3.6      98     11.9    1.67      0      0      0      0      0    34.3    34.3      0     0.55      1.8      1.8      1.8   100    14.2     5.006    96.8    4.848   24.241      66        2.57    0.000    0.000     844.4    844.4    1.67   457.8     766.8     483.4     426.4     311.4     286.4     216.7    0.000     0.000     0.000     0.000     0.000    1.67     0.00    0.00      0   -9.90   -9.00       25.3       15.6       27.8       29.0       29.0       29.0       29.0       29.0       29.0       29.0       29.0       29.0        0.0        0.0        0.0        0.0        0.0        0.0        0.0        0.0        0.0        0.0        0.0        0.0      1.4       3.3      12.6      16.9      21.2    398.82
    17     7  2014    58     2     841.5     0.2      0.0    0.0    0.2    0.0      0.0      0.0   -9.90      1.8      1.1     60      2.0      2.0   100      3.8     3.1      81     11.6    1.68      0      0      0      0      0    36.5    36.5      0     0.58      2.0      2.0      2.0   100    14.1     5.088    96.9    4.930   24.652      65        2.57    0.000    0.000     841.5    841.5    1.68   459.4     773.9     487.9     431.4     315.0     289.7     218.7    0.000     0.000     0.000     0.000     0.000    1.68     0.00    0.00      0   -9.90   -9.00       22.4       15.6       27.8       29.0       29.0       29.0       29.0       29.0       29.0       29.0       29.0       29.0        0.0        0.0        0.0        0.0        0.0        0.0        0.0        0.0        0.0        0.0        0.0        0.0      0.2       3.4      11.6      16.6      21.6    398.82
    18     7  2014    59     2     838.2     0.5      0.0    0.0    0.5    0.0      0.0      0.0   -9.90      2.2      1.1     50      2.7      2.7   100      4.9     3.8      77     14.1    1.70      0      0      0      0      0    39.0    39.0      0     0.61      2.7      2.7      2.7   100    14.0     5.174    96.9    5.016   25.082      65        2.56    0.000    0.000     838.2    838.2    1.70   461.6     782.6     493.4     446.4     325.7     299.1     221.2    0.000     0.000     0.000     0.000     0.000    1.70     0.00    0.00      0   -9.90   -9.00       19.7       15.2       27.8       29.0       29.0       29.0       29.0       29.0       29.0       29.0       29.0       29.0        0.0        0.0        0.0        0.0        0.0        0.0        0.0        0.0        0.0        0.0        0.0        0.0      0.5       4.4      11.9      19.1      26.3    398.82
    19     7  2014    60     2     835.5     0.3      0.0    0.0    0.3    0.0      0.0      0.0   -9.90      1.8      0.6     36      2.4      2.4   100      4.2     3.0      72     13.6    1.72      0      0      0      0      0    41.1    41.1      0     0.64      2.4      2.4      2.4   100    14.0     5.263    97.0    5.105   25.527      64        2.57    0.000    0.000     835.5    835.5    1.72   464.1     790.9     498.6     443.9     324.1     297.9     223.5    0.000     0.000     0.000     0.000     0.000    1.72     0.00    0.00      0   -9.90   -9.00       17.2       15.0       27.8       29.0       29.0       29.0       29.0       29.0       29.0       29.0       29.0       29.0        0.0        0.0        0.0        0.0        0.0        0.0        0.0        0.0        0.0        0.0        0.0        0.0      0.3       3.7      12.5      18.6      24.8    398.82
    20     7  2014    61     2     833.2     1.1      0.0    0.0    1.1    0.0      0.0      0.0   -9.90      1.5      1.2     77      2.2      2.2   100      3.7     3.4      90     15.5    1.74      0      0      0      0      0    43.2    43.2      0     0.66      2.2      2.2      2.2   100    13.9     5.355    97.0    5.197   25.987      64        2.57    0.000    0.000     833.2    833.2    1.74   467.8     800.3     504.5     445.0     325.0     298.9     226.2    0.000     0.000     0.000     0.000     0.000    1.74     0.00    0.00      0   -9.90   -9.00       15.1       14.9       27.8       29.0       29.0       29.0       29.0       29.0       29.0       29.0       29.0       29.0        0.0        0.0        0.0        0.0        0.0        0.0        0.0        0.0        0.0        0.0        0.0        0.0      1.1       3.3      16.1      20.5      25.0    398.82
    21     7  2014    62     2     830.4     0.2      0.0    0.0    0.2    0.0      0.0      0.0   -9.90      1.7      0.4     21      2.7      2.7   100      4.4     3.0      69     16.0    1.76      0      0      0      0      0    45.1    45.1      0     0.68      2.7      2.7      2.7   100    13.8     5.450    97.1    5.292   26.459      64        2.58    0.000    0.000     830.4    830.4    1.76   471.0     809.9     510.6     456.7     333.3     306.3     228.9    0.000     0.000     0.000     0.000     0.000    1.76     0.00    0.00      0   -9.90   -9.00       13.6       14.1       27.8       29.0       29.0       29.0       29.0       29.0       29.0       29.0       29.0       29.0        0.0        0.0        0.0        0.0        0.0        0.0        0.0        0.0        0.0        0.0        0.0        0.0      0.2       3.9      15.6      21.0      26.3    398.82
    22     7  2014    63     2     827.5     0.0      0.0    0.0    0.0    0.0      0.0      0.0   -9.90      1.7      0.1      7      2.8      2.8   100      4.5     2.9      65     17.5    1.78      0      0      0      0      0    46.8    46.8      0     0.70      2.8      2.8      2.8   100    13.7     5.546    97.2    5.388   26.941      64        2.59    0.000    0.000     827.5    827.5    1.78   474.6     820.3     517.1     463.6     338.4     310.9     231.8    0.000     0.000     0.000     0.000     0.000    1.78     0.00    0.00      0   -9.90   -9.00       13.0       13.2       27.1       29.0       29.0       29.0       29.0       29.0       29.0       29.0       29.0       29.0        0.0        0.0        0.0        0.0        0.0        0.0        0.0        0.0        0.0        0.0        0.0        0.0      0.0       4.0      16.7      22.5      28.2    398.82
    23     7  2014    64     2     828.8     4.6      0.0    0.0    4.6    0.0      0.0      0.0   -9.90      1.2      1.2    100      2.1      2.1   100      3.3     3.3     100     13.5    1.80      0      0      0      0      0    48.0    48.0      0     0.72      2.1      2.1      2.1   100    13.6     5.644    97.2    5.486   27.430      63        2.60    0.000    0.000     828.8    828.8    1.80   481.0     828.3     522.2     456.3     333.3     306.8     234.1    0.000     0.000     0.000     0.000     0.000    1.80     0.00    0.00      0   -9.90   -9.00       14.5       13.1       27.1       29.0       29.0       29.0       29.0       29.0       29.0       29.0       29.0       29.0        0.0        0.0        0.0        0.0        0.0        0.0        0.0        0.0        0.0        0.0        0.0        0.0      4.6       2.9      13.5      18.5      23.6    398.82
    24     7  2014    65     2     826.5     2.5      0.0    0.0    2.5    0.0      0.0      0.0   -9.90      1.7      1.7    100      3.1      3.1   100      4.8     4.8     100     11.6    1.82      0      0      0      0      0    48.9    48.9      0     0.73      3.1      3.1      3.1   100    13.5     5.740    97.2    5.582   27.909      63        2.58    0.000    0.002     826.5    826.5    1.82   483.0     835.1     526.5     475.3     346.8     318.5     236.0    0.000     0.000     0.000     0.000     0.000    1.82     0.00    0.00      0   -9.90   -9.00       13.8       13.0       26.1       29.0       29.0       29.0       29.0       29.0       29.0       29.0       29.0       29.0        0.0        0.0        0.0        0.0        0.0        0.0        0.0        0.0        0.0        0.0        0.0        0.0      2.5       4.3      10.6      16.6      22.6    398.82
    25     7  2014    66     2     823.7     0.6      0.0    0.0    0.6    0.0      0.0      0.0   -9.90      1.4      0.7     46      2.7      2.7   100      4.2     3.4      81     13.5    1.83      0      0      0      0      0    49.9    49.9      0     0.74      2.7      2.7      2.7   100    13.4     5.834    97.3    5.676   28.381      63        2.59    0.000    0.005     823.7    823.7    1.83   485.1     843.0     531.5     473.2     345.4     317.6     238.2    0.000     0.000     0.000     0.000     0.000    1.83     0.00    0.00      0   -9.90   -9.00       13.0       13.0       24.8       29.0       29.0       29.0       29.0       29.0       29.0       29.0       29.0       29.0        0.0        0.0        0.0        0.0        0.0        0.0        0.0        0.0        0.0        0.0        0.0        0.0      0.6       3.7      12.6      18.5      24.3    398.82
    26     7  2014    67     2     821.3     0.9      0.0    0.0    0.9    0.0      0.0      0.0   -9.90      1.2      0.9     78      2.3      2.3   100      3.5     3.2      92     14.1    1.85      0      0      0      0      0    50.7    50.7      0     0.75      2.3      2.3      2.3   100    13.3     5.926    97.3    5.768   28.842      63        2.59    0.000    0.007     821.3    821.3    1.85   488.0     851.3     536.7     471.2     344.1     316.6     240.6    0.000     0.000     0.000     0.000     0.000    1.85     0.00    0.00      0   -9.90   -9.00       13.0       13.0       23.2       29.0       29.0       29.0       29.0       29.0       29.0       29.0       29.0       29.0        0.0        0.0        0.0        0.0        0.0        0.0        0.0        0.0        0.0        0.0        0.0        0.0      0.9       3.1      13.4      19.1      24.8    398.82
    27     7  2014    68     2     824.8     6.8      0.0    0.0    6.8    0.0      0.0      0.0   -9.90      1.1      1.1    100      2.3      2.3   100      3.4     3.4     100     15.8    1.87      0      0      0      0      0    51.6    51.6      0     0.76      2.3      2.3      2.3   100    13.2     6.017    97.4    5.859   29.293      63        2.59    0.000    0.010     824.8    824.8    1.87   497.2     860.4     542.4     475.1     347.0     319.3     243.2    0.000     0.000     0.000     0.000     0.000    1.87     0.00    0.00      0   -9.90   -9.00       16.6       13.0       23.1       29.0       29.0       29.0       29.0       29.0       29.0       29.0       29.0       29.0        0.0        0.0        0.0        0.0        0.0        0.0        0.0        0.0        0.0        0.0        0.0        0.0      6.8       3.0      16.5      20.8      25.1    398.82
    28     7  2014    69     2     825.2     2.2      0.0    0.0    2.2    0.0      0.0      0.0   -9.90      0.6      0.6    100      1.2      1.2   100      1.8     1.8     100     10.2    1.88      0      0      0      0      0    52.0    52.0      0     0.76      1.2      1.2      1.2   100    13.1     6.104    97.4    5.946   29.731      63        2.61    0.000    0.012     825.2    825.2    1.88   501.3     866.3     546.2     462.6     338.2     311.9     244.8    0.000     0.000     0.000     0.000     0.000    1.88     0.00    0.00      0   -9.90   -9.00       16.9       13.0       23.1       29.0       29.0       29.0       29.0       29.0       29.0       29.0       29.0       29.0        0.0        0.0        0.0        0.0        0.0        0.0        0.0        0.0        0.0        0.0        0.0        0.0      2.2       1.6      12.8      15.2      17.7    398.82
    29     7  2014    70     2     823.0     1.9      0.0    0.0    1.9    0.0      0.0      0.0   -9.90      1.3      1.3    100      2.8      2.8   100      4.1     4.1     100     11.6    1.90      0      0      0      0      0    52.5    52.5      0     0.77      2.8      2.8      2.8   100    13.0     6.189    97.4    6.031   30.157      62        2.60    0.000    0.014     823.0    823.0    1.90   503.4     873.0     550.4     488.9     356.9     328.2     246.7    0.000     0.000     0.000     0.000     0.000    1.90     0.00    0.00      0   -9.90   -9.00       15.5       13.0       22.7       29.0       29.0       29.0       29.0       29.0       29.0       29.0       29.0       29.0        0.0        0.0        0.0        0.0        0.0        0.0        0.0        0.0        0.0        0.0        0.0        0.0      1.9       3.6      10.9      16.6      22.4    398.82
    30     7  2014    71     2     831.3    11.3      0.0    0.0   11.3    0.0      0.0      0.0   -9.90      1.0      1.0    100      2.1      2.1   100      3.0     3.0     100     11.5    1.91      0      0      0      0      0    53.0    53.0      0     0.77      2.1      2.1      2.1   100    12.9     6.272    97.5    6.114   30.569      62        2.60    0.000    0.016     831.3    831.3    1.91   515.8     879.6     554.6     482.3     352.3     324.4     248.6    0.000     0.000     0.000     0.000     0.000    1.91     0.00    0.00      0   -9.90   -9.00       23.8       13.0       22.7       29.0       29.0       29.0       29.0       29.0       29.0       29.0       29.0       29.0        0.0        0.0        0.0        0.0        0.0        0.0        0.0        0.0        0.0        0.0        0.0        0.0     11.3       2.7      12.9      16.5      20.2    398.82
    31     7  2014    72     2     838.6    10.6      0.0    0.0   10.6    0.0      0.0      0.0   -9.90      1.0      1.0    100      2.2      2.2   100      3.3     3.3     100     10.9    1.93      0      0      0      0      0    53.4    53.4      0     0.77      2.2      2.2      2.2   100    12.7     6.352    97.5    6.194   30.970      62        2.60    0.000    0.019     838.6    838.6    1.93   527.1     885.9     558.5     488.0     356.4     328.1     250.4    0.000     0.000     0.000     0.000     0.000    1.93     0.00    0.00      0   -9.90   -9.00       31.2       13.0       22.6       29.0       29.0       29.0       29.0       29.0       29.0       29.0       29.0       29.0        0.0        0.0        0.0        0.0        0.0        0.0        0.0        0.0        0.0        0.0        0.0        0.0     10.6       2.9      12.2      15.9      19.6    398.82
     1     8  2014    73     2     837.8     3.3      0.0    0.0    3.3    0.0      0.0      0.0   -9.90      1.3      1.3    100      2.8      2.8   100      4.1     4.1     100     14.4    1.94      0      0      0      0      0    53.8    53.8      0     0.78      2.8      2.8      2.8   100    12.6     6.430    97.5    6.272   31.358      62        2.59    0.000    0.021     837.8    837.8    1.94   531.5     894.0     563.6     500.7     365.5     336.1     252.7    0.000     0.000     0.000     0.000     0.000    1.94     0.00    0.00      0   -9.90   -9.00       29.1       13.9       22.6       29.0       29.0       29.0       29.0       29.0       29.0       29.0       29.0       29.0        0.0        0.0        0.0        0.0        0.0        0.0        0.0        0.0        0.0        0.0        0.0        0.0      3.3       3.6      13.3      19.4      25.5    398.82
     2     8  2014    74     2     833.8     0.3      0.0    0.0    0.3    0.0      0.0      0.0   -9.90      1.4      1.2     89      3.1      3.1   100      4.5     4.4      97     16.1    1.96      0      0      0      0      0    54.3    54.3      0     0.78      3.1      3.1      3.1   100    12.5     6.505    97.6    6.347   31.733      62        2.57    0.000    0.023     833.8    833.8    1.96   533.1     903.2     569.4     510.5     372.6     342.3     255.2    0.000     0.000     0.000     0.000     0.000    1.96     0.00    0.00      0   -9.90   -9.00       25.9       13.3       22.6       29.0       29.0       29.0       29.0       29.0       29.0       29.0       29.0       29.0        0.0        0.0        0.0        0.0        0.0        0.0        0.0        0.0        0.0        0.0        0.0        0.0      0.3       4.0      14.3      21.1      28.0    398.82
     3     8  2014    75     2     831.0     1.5      0.0    0.0    1.5    0.0      0.0      0.0   -9.90      1.3      1.3    100      3.0      3.0   100      4.3     4.3     100     16.8    1.98      0      0      0      0      0    54.6    54.6      0     0.79      3.0      3.0      3.0   100    12.4     6.577    97.6    6.419   32.097      61        2.56    0.000    0.025     831.0    831.0    1.98   536.3     912.6     575.3     513.4     374.8     344.5     257.9    0.000     0.000     0.000     0.000     0.000    1.98     0.00    0.00      0   -9.90   -9.00       24.0       13.0       22.3       29.0       29.0       29.0       29.0       29.0       29.0       29.0       29.0       29.0        0.0        0.0        0.0        0.0        0.0        0.0        0.0        0.0        0.0        0.0        0.0        0.0      1.5       3.8      15.5      21.8      28.1    398.82
     4     8  2014    76     2     827.9     0.8      0.0    0.0    0.8    0.0      0.0      0.0   -9.90      1.2      1.0     78      2.9      2.9   100      4.2     3.9      93     17.8    2.01      0      0      0      0      0    55.0    55.0      0     0.79      2.9      2.9      2.9   100    12.2     6.648    97.6    6.490   32.449      61        2.55    0.000    0.026     827.9    827.9    2.01   539.4     922.5     581.6     517.8     378.0     347.5     260.7    0.000     0.000     0.000     0.000     0.000    2.01     0.00    0.00      0   -9.90   -9.00       21.7       13.0       21.8       29.0       29.0       29.0       29.0       29.0       29.0       29.0       29.0       29.0        0.0        0.0        0.0        0.0        0.0        0.0        0.0        0.0        0.0        0.0        0.0        0.0      0.8       3.7      16.5      22.8      29.0    398.82
     5     8  2014    77     2     825.6     0.6      0.0    0.0    0.6    0.0      0.0      0.0   -9.90      0.9      0.7     74      2.2      2.2   100      3.2     2.9      92     14.0    2.02      0      0      0      0      0    55.2    55.2      0     0.79      2.2      2.2      2.2   100    12.1     6.716    97.6    6.558   32.788      61        2.54    0.000    0.028     825.6    825.6    2.02   542.0     930.2     586.4     511.2     373.4     343.8     262.9    0.000     0.000     0.000     0.000     0.000    2.02     0.00    0.00      0   -9.90   -9.00       19.5       13.0       21.7       29.0       29.0       29.0       29.0       29.0       29.0       29.0       29.0       29.0        0.0        0.0        0.0        0.0        0.0        0.0        0.0        0.0        0.0        0.0        0.0        0.0      0.6       2.8      13.7      19.0      24.2    398.82
     6     8  2014    78     2     823.5     2.2      0.0    0.0    2.2    0.0      0.0      0.0   -9.90      1.3      1.3    100      3.0      3.0   100      4.3     4.3     100     12.3    2.04      0      0      0      0      0    55.4    55.4      0     0.80      3.0      3.0      3.0   100    12.0     6.781    97.7    6.623   33.116      61        2.53    0.000    0.030     823.5    823.5    2.04   544.2     937.0     590.7     527.2     384.8     353.7     264.8    0.000     0.000     0.000     0.000     0.000    2.04     0.00    0.00      0   -9.90   -9.00       18.3       13.0       21.1       29.0       29.0       29.0       29.0       29.0       29.0       29.0       29.0       29.0        0.0        0.0        0.0        0.0        0.0        0.0        0.0        0.0        0.0        0.0        0.0        0.0      2.2       3.8      10.8      17.3      23.8    398.82
     7     8  2014    79     2     820.3     0.5      0.0    0.0    0.5    0.0      0.0      0.0   -9.90      1.3      0.6     49      3.0      3.0   100      4.3     3.6      85     13.0    2.05      0      0      0      0      0    55.6    55.6      0     0.80      3.0      3.0      3.0   100    11.8     6.844    97.7    6.686   33.432      60        2.52    0.000    0.031     820.3    820.3    2.05   545.6     944.2     595.3     531.2     387.8     356.4     266.8    0.000     0.000     0.000     0.000     0.000    2.05     0.00    0.00      0   -9.90   -9.00       16.1       13.0       20.5       29.0       29.0       29.0       29.0       29.0       29.0       29.0       29.0       29.0        0.0        0.0        0.0        0.0        0.0        0.0        0.0        0.0        0.0        0.0        0.0        0.0      0.5       3.8      13.6      18.0      22.5    398.82
     8     8  2014    80     2     817.1     0.0      0.0    0.0    0.0    0.0      0.0      0.0   -9.90      1.3      0.1     11      3.1      3.1   100      4.4     3.3      74     14.2    2.07      0      0      0      0      0    55.8    55.8      0     0.80      3.1      3.1      3.1   100    11.7     6.906    97.7    6.748   33.738      60        2.51    0.000    0.032     817.1    817.1    2.07   547.2     952.0     600.2     536.8     391.8     360.1     269.0    0.000     0.000     0.000     0.000     0.000    2.07     0.00    0.00      0   -9.90   -9.00       14.2       13.0       19.6       29.0       29.0       29.0       29.0       29.0       29.0       29.0       29.0       29.0        0.0        0.0        0.0        0.0        0.0        0.0        0.0        0.0        0.0        0.0        0.0        0.0      0.0       3.9      14.0      19.2      24.4    398.82
     9     8  2014    81     2     813.8     0.0      0.0    0.0    0.0    0.0      0.0      0.0   -9.90      1.3      0.1      8      3.2      3.2   100      4.5     3.3      73     15.0    2.09     -9      0      0      0      0    56.3    56.3      0     0.80      3.2      3.2      3.2   100    11.5     6.965    97.7    6.807   34.035      60        2.50    0.000    0.033     813.8    813.8    2.09   549.1     960.1     605.3     542.7     396.1     363.9     271.3    0.000     0.000     0.000     0.000     0.000    2.09     0.00    0.00      0   -9.90   -9.00       13.1       13.0       18.1       29.0       29.0       29.0       29.0       29.0       29.0       29.0       29.0       29.0        0.0        0.0        0.0        0.0        0.0        0.0        0.0        0.0        0.0        0.0        0.0        0.0      0.0       4.0      13.6      20.0      26.3    398.82
    10     8  2014    82     2     810.3     0.0      0.0    0.0    0.0    0.0      0.0      0.0   -9.90      1.4      0.1      6      3.4      3.4   100      4.7     3.5      73     16.4    2.11     -9      0      0      0      0    56.2    56.2      0     0.80      3.4      3.4      3.4   100    11.4     7.022    97.7    6.864   34.318      60        2.49    0.000    0.035     810.3    810.3    2.11   551.2     969.0     610.9     550.2     401.5     368.8     273.8    0.000     0.000     0.000     0.000     0.000    2.11     0.00    0.00      0   -9.90   -9.00       13.0       13.0       16.2       28.8       29.0       29.0       29.0       29.0       29.0       29.0       29.0       29.0        0.0        0.0        0.0        0.0        0.0        0.0        0.0        0.0        0.0        0.0        0.0        0.0      0.0       4.2      14.7      21.4      28.0    398.82
    11     8  2014    83     2     806.9     0.0      0.0    0.0    0.0    0.0      0.0      0.0   -9.90      1.3      0.1      6      3.3      3.3   100      4.6     3.4      73     16.6    2.13     -9      0      0      0      0    56.1    56.1      0     0.80      3.3      3.3      3.3   100    11.2     7.077    97.8    6.919   34.593      59        2.48    0.000    0.035     806.9    806.9    2.13   553.5     978.0     616.5     554.0     404.3     371.5     276.4    0.000     0.000     0.000     0.000     0.000    2.13     0.00    0.00      0   -9.90   -9.00       12.9       13.0       14.5       28.4       29.0       29.0       29.0       29.0       29.0       29.0       29.0       29.0        0.0        0.0        0.0        0.0        0.0        0.0        0.0        0.0        0.0        0.0        0.0        0.0      0.0       4.1      15.8      21.6      27.4    398.82
    12     8  2014    84     2     819.0    14.1      0.0    0.0   14.1    0.0      0.0      0.0   -9.90      0.6      0.6    100      1.4      1.4   100      2.0     2.0     100     14.4    2.14     -9      0      0      0      0    56.1    56.1      0     0.80      1.4      1.4      1.4   100    11.1     7.130    97.8    6.972   34.858      59        2.48    0.000    0.036     819.0    819.0    2.14   570.4     985.7     621.4     528.9     386.6     356.5     278.6    0.000     0.000     0.000     0.000     0.000    2.14     0.00    0.00      0   -9.90   -9.00       25.0       13.0       14.5       28.4       29.0       29.0       29.0       29.0       29.0       29.0       29.0       29.0        0.0        0.0        0.0        0.0        0.0        0.0        0.0        0.0        0.0        0.0        0.0        0.0     14.1       1.8      17.5      19.4      21.2    398.82
    13     8  2014    85     2     839.8    23.7      0.0    0.0   23.2    0.5      0.0      0.0   -9.90      0.7      0.7    100      1.8      1.8   100      2.5     2.5     100     12.9    2.16     -9      0      0      0      0    56.1    56.1      0     0.80      1.8      1.8      1.8   100    10.9     7.181    97.8    7.023   35.114      59        2.48    0.000    0.036     839.8    839.8    2.16   595.5     992.5     625.7     537.7     393.0     362.1     280.5    0.000     0.000     0.000     0.000     0.000    2.16     0.00    0.00      0   -9.90   -9.00       43.5       14.5       14.5       28.4       29.0       29.0       29.0       29.0       29.0       29.0       29.0       29.0        0.0        0.0        0.0        0.0        0.0        0.0        0.0        0.0        0.0        0.0        0.0        0.0     23.7       2.2      11.8      17.9      23.9    398.82
    14     8  2014    86     2     838.8     1.4      0.0    0.0    1.4    0.0      0.0      0.0   -9.90      0.7      0.7    100      1.7      1.7   100      2.4     2.4     100      8.0    2.17     -9      0      0      0      0    56.0    56.0      0     0.80      1.7      1.7      1.7   100    10.8     7.230    97.8    7.072   35.362      59        2.47    0.000    0.036     838.8    838.8    2.17   597.2     996.8     628.4     538.7     393.7     362.9     281.7    0.000     0.000     0.000     0.000     0.000    2.17     0.00    0.00      0   -9.90   -9.00       28.2       24.1       14.5       28.4       29.0       29.0       29.0       29.0       29.0       29.0       29.0       29.0        0.0        0.0        0.0        0.0        0.0        0.0        0.0        0.0        0.0        0.0        0.0        0.0      1.4       2.1       9.6      13.0      16.4    398.82
    15     8  2014    87     2     838.8     1.8      0.0    0.0    1.8    0.0      0.0      0.0   -9.90      0.5      0.5    100      1.3      1.3   100      1.8     1.8     100      8.1    2.18     -9      0      0      0      0    56.0    56.0      0     0.80      1.3      1.3      1.3   100    10.6     7.278    97.8    7.120   35.602      58        2.47    0.000    0.037     838.8    838.8    2.18   600.0    1001.1     631.1     534.5     390.8     360.5     282.9    0.000     0.000     0.000     0.000     0.000    2.18     0.00    0.00      0   -9.90   -9.00       28.2       24.1       14.5       28.4       29.0       29.0       29.0       29.0       29.0       29.0       29.0       29.0        0.0        0.0        0.0        0.0        0.0        0.0        0.0        0.0        0.0        0.0        0.0        0.0      1.8       1.6       8.4      13.1      17.8    398.82
[...]
     7    10  2016   154     2     724.5     0.1      0.0    0.0    0.1    0.0      0.0      0.0   -9.90      0.7      0.2     23      1.5      1.5   100      2.1     1.6      75     12.0    3.00      2      0      0      0      0    53.0    53.0      0     0.77      1.5      1.5      1.5   100     8.0    12.348   100.0   12.348   61.738      49        2.71    0.000    0.034     724.5    724.5    3.00   724.5    1380.0     870.0     742.2     542.6     500.2     390.0    0.000     0.000     0.000     0.000     0.000    3.00     0.00    0.00      0   -9.90   -9.00       13.6       13.1       20.7       13.0       13.0       17.1       29.0       29.0       29.0       29.0       29.0       29.0        0.0        0.0        0.0        0.0        0.0        0.0        0.0        0.0        0.0        0.0        0.0        0.0      0.1       1.9       9.7      17.0      24.3    404.41
     8    10  2016   155     2     731.8     8.2      0.0    0.0    8.2    0.0      0.0      0.0   -9.90      0.3      0.3    100      0.6      0.6   100      0.9     0.9     100      9.2    3.00      0      0      0      0      0    53.2    53.2      0     0.77      0.6      0.6      0.6   100     8.0    12.375   100.0   12.375   61.875      49        2.71    0.000    0.034     731.8    731.8    3.00   731.8    1380.0     870.0     722.4     528.6     488.2     390.0    0.000     0.000     0.000     0.000     0.000    3.00     0.00    0.00      0   -9.90   -9.00       20.9       13.1       20.7       13.0       13.0       17.1       29.0       29.0       29.0       29.0       29.0       29.0        0.0        0.0        0.0        0.0        0.0        0.0        0.0        0.0        0.0        0.0        0.0        0.0      8.2       0.8       9.4      14.2      19.0    404.41
     9    10  2016   156     2     731.9     0.8      0.0    0.0    0.8    0.0      0.0      0.0   -9.90      0.4      0.4    100      0.2      0.2   100      0.6     0.6     100      3.0    3.00     -9      0      0      0      0    53.2    53.2     75     0.77      0.2      0.2      0.2   100     8.0    12.382   100.0   12.382   61.910      49        2.71    0.000    0.009     731.9    731.9    3.00   731.9    1380.0     870.0     727.8     532.4     491.5     390.0    0.000     0.000     0.000     0.000     0.000    3.00     0.00    0.00      0   -9.90   -9.00       21.1       13.1       20.7       13.0       13.0       17.1       29.0       29.0       29.0       29.0       29.0       29.0        0.0        0.0        0.0        0.0        0.0        0.0        0.0        0.0        0.0        0.0        0.0        0.0      0.8       1.1       3.3       8.0      12.6    404.41
    10    10  2016   157     2     731.5     0.0      0.0    0.0    0.0    0.0      0.0      0.0   -9.90      0.5      0.4     91      0.1      0.1   100      0.5     0.5      93      1.6    3.00     -9      0      0      0      0    53.2    53.2     93     0.77      0.1      0.1      0.1   100     8.0    12.384   100.0   12.384   61.919      49        2.70    0.000    0.002     731.5    731.5    3.00   731.5    1380.0     870.0     731.4     534.9     493.6     390.0    0.000     0.000     0.000     0.000     0.000    3.00     0.00    0.00      0   -9.90   -9.00       20.6       13.1       20.7       13.0       13.0       17.1       29.0       29.0       29.0       29.0       29.0       29.0        0.0        0.0        0.0        0.0        0.0        0.0        0.0        0.0        0.0        0.0        0.0        0.0      0.0       1.3       0.6       6.6      12.5    404.41
    11    10  2016   158     2     730.7     0.0      0.0    0.0    0.0    0.0      0.0      0.0   -9.90      0.5      0.1     23      0.6      0.6   100      1.1     0.8      68      4.6    3.00     -9      0      0      0      0    53.2    53.2     36     0.77      0.6      0.6      0.6   100     8.0    12.401   100.0   12.401   62.007      49        2.70    0.000    0.022     730.7    730.7    3.00   730.7    1380.0     870.0     731.4     534.9     493.6     390.0    0.000     0.000     0.000     0.000     0.000    3.00     0.00    0.00      0   -9.90   -9.00       19.8       13.1       20.7       13.0       13.0       17.1       29.0       29.0       29.0       29.0       29.0       29.0        0.0        0.0        0.0        0.0        0.0        0.0        0.0        0.0        0.0        0.0        0.0        0.0      0.0       1.3       0.9       9.6      18.4    404.41
    12    10  2016   159     2     729.5     0.0      0.0    0.0    0.0    0.0      0.0      0.0   -9.90      0.5      0.1     20      1.1      1.1   100      1.6     1.2      75      8.1    3.00     -9      0      0      0      0    53.1    53.1      0     0.77      1.1      1.1      1.1   100     8.0    12.428   100.0   12.428   62.142      49        2.70    0.000    0.034     729.5    729.5    3.00   729.5    1380.0     870.0     733.2     536.2     494.7     390.0    0.000     0.000     0.000     0.000     0.000    3.00     0.00    0.00      0   -9.90   -9.00       18.6       13.1       20.7       13.0       13.0       17.1       29.0       29.0       29.0       29.0       29.0       29.0        0.0        0.0        0.0        0.0        0.0        0.0        0.0        0.0        0.0        0.0        0.0        0.0      0.0       1.4       5.8      13.1      20.4    404.41
    13    10  2016   160     2     730.4     1.3      0.0    0.0    1.3    0.0      0.0      0.0   -9.90      0.3      0.3    100      0.1      0.1   100      0.4     0.4     100      2.6    3.00     -9      0      0      0      0    53.1    53.1     81     0.77      0.1      0.1      0.1   100     8.0    12.434   100.0   12.434   62.168      49        2.70    0.000    0.007     730.4    730.4    3.00   730.4    1380.0     870.0     722.4     528.6     488.2     390.0    0.000     0.000     0.000     0.000     0.000    3.00     0.00    0.00      0   -9.90   -9.00       19.5       13.1       20.7       13.0       13.0       17.1       29.0       29.0       29.0       29.0       29.0       29.0        0.0        0.0        0.0        0.0        0.0        0.0        0.0        0.0        0.0        0.0        0.0        0.0      1.3       0.8       1.2       7.6      14.0    404.41
    14    10  2016   161     2     730.6     0.6      0.0    0.0    0.6    0.0      0.0      0.0   -9.90      0.4      0.4    100      0.1      0.1   100      0.4     0.4     100      1.6    3.00     -9      0      0      0      0    53.1    53.1     93     0.77      0.1      0.1      0.1   100     8.0    12.436   100.0   12.436   62.178      49        2.70    0.000    0.002     730.6    730.6    3.00   730.6    1380.0     870.0     726.0     531.1     490.4     390.0    0.000     0.000     0.000     0.000     0.000    3.00     0.00    0.00      0   -9.90   -9.00       19.7       13.1       20.7       13.0       13.0       17.1       29.0       29.0       29.0       29.0       29.0       29.0        0.0        0.0        0.0        0.0        0.0        0.0        0.0        0.0        0.0        0.0        0.0        0.0      0.6       1.0       0.8       6.6      12.4    404.41
    15    10  2016   162     2     730.0     0.2      0.0    0.0    0.2    0.0      0.0      0.0   -9.90      0.4      0.2     61      0.6      0.6   100      0.9     0.8      84      4.7    3.00     -9      0      0      0      0    53.1    53.1     34     0.77      0.6      0.6      0.6   100     8.0    12.453   100.0   12.453   62.267      49        2.70    0.000    0.022     730.0    730.0    3.00   730.0    1380.0     870.0     727.8     532.4     491.5     390.0    0.000     0.000     0.000     0.000     0.000    3.00     0.00    0.00      0   -9.90   -9.00       19.1       13.1       20.7       13.0       13.0       17.1       29.0       29.0       29.0       29.0       29.0       29.0        0.0        0.0        0.0        0.0        0.0        0.0        0.0        0.0        0.0        0.0        0.0        0.0      0.2       1.1       1.7       9.7      17.7    404.41
    16    10  2016   163     2     736.0     6.8      0.0    0.0    6.8    0.0      0.0      0.0   -9.90      0.2      0.2    100      0.5      0.5   100      0.8     0.8     100      8.0    3.00      0      0      0      0      0    53.2    53.2      0     0.77      0.5      0.5      0.5   100     8.3    12.482   100.0   12.482   62.408      49        2.70    0.000    0.035     736.0    736.0    3.00   736.0    1380.0     870.0     720.6     527.3     487.1     390.0    0.000     0.000     0.000     0.000     0.000    3.00     0.00    0.00      0   -9.90   -9.00       25.1       13.1       20.7       13.0       13.0       17.1       29.0       29.0       29.0       29.0       29.0       29.0        0.0        0.0        0.0        0.0        0.0        0.0        0.0        0.0        0.0        0.0        0.0        0.0      6.8       0.7       9.0      13.0      17.0    404.41
    17    10  2016   164     2     745.7    10.5      0.0    0.0   10.5    0.0      0.0      0.0   -9.90      0.4      0.4    100      0.5      0.5   100      0.8     0.8     100      4.4    3.00      0      0      0      0      0    53.3    53.3     41     0.77      0.5      0.5      0.5   100     8.2    12.498   100.0   12.498   62.492      48        2.70    0.000    0.020     745.7    745.7    3.00   745.7    1380.0     870.0     726.0     531.1     490.4     390.0    0.000     0.000     0.000     0.000     0.000    3.00     0.00    0.00      0   -9.90   -9.00       34.8       13.1       20.7       13.0       13.0       17.1       29.0       29.0       29.0       29.0       29.0       29.0        0.0        0.0        0.0        0.0        0.0        0.0        0.0        0.0        0.0        0.0        0.0        0.0     10.5       1.0       5.8       9.4      13.0    404.41
    18    10  2016   165     2     749.3     4.7      0.0    0.0    4.7    0.0      0.0      0.0   -9.90      0.4      0.4    100      0.8      0.8   100      1.1     1.1     100     11.2    3.00      0      0      0      0      0    53.4    53.4      0     0.77      0.8      0.8      0.8   100     8.0    12.527   100.0   12.527   62.634      48        2.70    0.000    0.034     749.3    749.3    3.00   749.3    1380.0     870.0     726.0     531.1     490.4     390.0    0.000     0.000     0.000     0.000     0.000    3.00     0.00    0.00      0   -9.90   -9.00       32.9       16.8       20.7       13.0       13.0       17.1       29.0       29.0       29.0       29.0       29.0       29.0        0.0        0.0        0.0        0.0        0.0        0.0        0.0        0.0        0.0        0.0        0.0        0.0      4.7       1.0       8.6      16.2      23.8    404.41
    19    10  2016   166     2     748.9     0.8      0.0    0.0    0.8    0.0      0.0      0.0   -9.90      0.4      0.4    100      0.8      0.8   100      1.2     1.2     100      7.2    3.00      0      0      0      0      0    53.4    53.4      4     0.77      0.8      0.8      0.8   100     8.1    12.554   100.0   12.554   62.769      48        2.70    0.000    0.033     748.9    748.9    3.00   748.9    1380.0     870.0     727.8     532.4     491.5     390.0    0.000     0.000     0.000     0.000     0.000    3.00     0.00    0.00      0   -9.90   -9.00       28.7       19.3       20.7       13.0       13.0       17.1       29.0       29.0       29.0       29.0       29.0       29.0        0.0        0.0        0.0        0.0        0.0        0.0        0.0        0.0        0.0        0.0        0.0        0.0      0.8       1.1       7.2      12.2      17.2    404.41
    20    10  2016   167     2     763.6    15.7      0.0    0.0   15.3    0.4      0.0      0.0   -9.90      0.2      0.2    100      0.4      0.4   100      0.6     0.6     100      5.4    3.00      0      0      0      0      0    53.4    53.4     20     0.77      0.4      0.4      0.4   100     8.1    12.577   100.0   12.577   62.883      48        2.70    0.000    0.028     763.6    763.6    3.00   763.6    1380.0     870.0     718.8     526.0     486.0     390.0    0.000     0.000     0.000     0.000     0.000    3.00     0.00    0.00      0   -9.90   -9.00       43.4       19.3       20.7       13.0       13.0       17.1       29.0       29.0       29.0       29.0       29.0       29.0        0.0        0.0        0.0        0.0        0.0        0.0        0.0        0.0        0.0        0.0        0.0        0.0     15.7       0.6       6.7      10.4      14.2    404.41
    21    10  2016   168     2     785.9    25.6      0.0    0.0   22.5    3.1      0.0      0.0   -9.90      0.1      0.1    100      0.0      0.0   100      0.1     0.1     100      1.6    3.00      0      0      0      0      0    53.4    53.4     93     0.77      0.0      0.0      0.0   100     8.1    12.579   100.0   12.579   62.893      48        2.70    0.000    0.002     785.9    785.9    3.00   785.9    1380.0     870.0     713.4     522.2     482.7     390.0    0.000     0.000     0.000     0.000     0.000    3.00     0.00    0.00      0   -9.90   -9.00       45.9       32.5       20.7       13.0       13.0       17.1       29.0       29.0       29.0       29.0       29.0       29.0        0.0        0.0        0.0        0.0        0.0        0.0        0.0        0.0        0.0        0.0        0.0        0.0     25.6       0.3       3.4       6.6       9.8    404.41
    22    10  2016   169     2     798.3    13.0      0.0    0.0   12.5    0.5      0.0      0.0   -9.90      0.1      0.1    100      0.0      0.0   100      0.1     0.1     100      0.0    3.00      0     -9      0      0      0    53.4    53.4    100    -9.00      0.0      0.0      0.0   100     8.1    12.579   100.0   12.579   62.893      48        2.70    0.000    0.000     798.3    798.3    3.00   798.3    1380.0     870.0     715.2     523.5     483.8     390.0    0.000     0.000     0.000     0.000     0.000    3.00     0.00    0.00      0   -9.90   -9.00       41.4       29.2       29.3       17.5       13.0       17.1       29.0       29.0       29.0       29.0       29.0       29.0        0.0        0.0        0.0        0.0        0.0        0.0        0.0        0.0        0.0        0.0        0.0        0.0     13.0       0.4       2.7       3.7       4.7    404.41
    23    10  2016   170     2     799.2     1.9      0.0    0.0    1.9    0.0      0.0      0.0   -9.90      1.0      1.0    100      0.0      0.0   100      1.0     1.0     100      0.6    3.00     -9     -9     -9      0      0    53.4    53.4     98    -9.00      0.0      0.0      0.0   100     8.1    12.579   100.0   12.579   62.893      48        2.69    0.000    0.000     799.2    799.2    3.00   799.2    1380.0     870.0     724.2     529.8     489.3     390.0    0.000     0.000     0.000     0.000     0.000    3.00     0.00    0.00      0   -9.90   -9.00       30.1       29.4       29.3       23.5       13.0       17.1       29.0       29.0       29.0       29.0       29.0       29.0        0.0        0.0        0.0        0.0        0.0        0.0        0.0        0.0        0.0        0.0        0.0        0.0      1.9       0.9       1.1       5.6      10.1    404.41
    24    10  2016   171     2     798.6     0.1      0.0    0.0    0.1    0.0      0.0      0.0   -9.90      0.8      0.7     96      0.0      0.0   100      0.8     0.7      96      0.0    3.00     -9     -9     -9      0      0    53.4    53.4    100    -9.00      0.0      0.0      0.0   100     8.1    12.579   100.0   12.579   62.893      48        2.69    0.000    0.000     798.6    798.6    3.00   798.6    1380.0     870.0     720.6     527.3     487.1     390.0    0.000     0.000     0.000     0.000     0.000    3.00     0.00    0.00      0   -9.90   -9.00       28.4       29.1       29.1       24.4       13.0       17.1       29.0       29.0       29.0       29.0       29.0       29.0        0.0        0.0        0.0        0.0        0.0        0.0        0.0        0.0        0.0        0.0        0.0        0.0      0.1       0.7       2.2       4.9       7.7    404.41
    25    10  2016   172     2     798.5     0.6      0.0    0.0    0.6    0.0      0.0      0.0   -9.90      0.7      0.7    100      0.0      0.0   100      0.7     0.7     100      0.0    3.00     -9     -9     -9      0      0    53.4    53.4    100    -9.00      0.0      0.0      0.0   100     8.1    12.579   100.0   12.579   62.893      48        2.68    0.000    0.000     798.5    798.5    3.00   798.5    1380.0     870.0     718.8     526.0     486.0     390.0    0.000     0.000     0.000     0.000     0.000    3.00     0.00    0.00      0   -9.90   -9.00       28.3       29.0       29.0       24.5       13.0       17.1       29.0       29.0       29.0       29.0       29.0       29.0        0.0        0.0        0.0        0.0        0.0        0.0        0.0        0.0        0.0        0.0        0.0        0.0      0.6       0.6       0.1       3.1       6.1    404.41
    26    10  2016   173     2     798.1     0.1      0.0    0.0    0.1    0.0      0.0      0.0   -9.90      0.6      0.5     99      0.0      0.0   100      0.6     0.5      99      0.0    3.00     -9     -9     -9      0      0    53.4    53.4    100    -9.00      0.0      0.0      0.0   100     8.1    12.579   100.0   12.579   62.893      48        2.68    0.000    0.000     798.1    798.1    3.00   798.1    1380.0     870.0     717.0     524.7     484.9     390.0    0.000     0.000     0.000     0.000     0.000    3.00     0.00    0.00      0   -9.90   -9.00       27.9       29.0       29.0       24.5       13.0       17.1       29.0       29.0       29.0       29.0       29.0       29.0        0.0        0.0        0.0        0.0        0.0        0.0        0.0        0.0        0.0        0.0        0.0        0.0      0.1       0.5      -3.2       0.6       4.3    404.41
    27    10  2016   174     2     804.6     7.1      0.0    0.0    7.1    0.0      0.0      0.0   -9.90      0.6      0.6    100      0.0      0.0   100      0.6     0.6     100      0.0    3.00     -9     -9     -9      0      0    53.4    53.4    100    -9.00      0.0      0.0      0.0   100     8.1    12.579   100.0   12.579   62.893      48        2.68    0.000    0.000     804.6    804.6    3.00   804.6    1380.0     870.0     717.0     524.7     484.9     390.0    0.000     0.000     0.000     0.000     0.000    3.00     0.00    0.00      0   -9.90   -9.00       34.4       29.0       29.0       24.5       13.0       17.1       29.0       29.0       29.0       29.0       29.0       29.0        0.0        0.0        0.0        0.0        0.0        0.0        0.0        0.0        0.0        0.0        0.0        0.0      7.1       0.5      -3.5       0.3       4.2    404.41
    28    10  2016   175     2     806.7     2.7      0.0    0.0    2.7    0.0      0.0      0.0   -9.90      0.6      0.6    100      0.0      0.0   100      0.6     0.6     100      0.0    3.00     -9     -9     -9      0      0    53.4    53.4    100    -9.00      0.0      0.0      0.0   100     8.1    12.579   100.0   12.579   62.893      48        2.67    0.000    0.000     806.7    806.7    3.00   806.7    1380.0     870.0     717.0     524.7     484.9     390.0    0.000     0.000     0.000     0.000     0.000    3.00     0.00    0.00      0   -9.90   -9.00       31.4       29.2       29.2       26.8       13.0       17.1       29.0       29.0       29.0       29.0       29.0       29.0        0.0        0.0        0.0        0.0        0.0        0.0        0.0        0.0        0.0        0.0        0.0        0.0      2.7       0.5      -0.5       3.2       6.9    404.41
