AquaCrop 7.2 (August 2024) - Output created on (date) : 30-09-2024   at (time) : 15:56:02

    RunNr     Day1   Month1    Year1     Rain      ETo       GD     CO2      Irri   Infilt   Runoff    Drain   Upflow        E     E/Ex       Tr      TrW   Tr/Trx    SaltIn   SaltOut    SaltUp  SaltProf     Cycle   SaltStr  FertStr  WeedStr  TempStr   ExpStr   StoStr  BioMass  Brelative   HI    Y(dry)  Y(fresh)    WPet      Bin     Bout     DayN   MonthN    YearN
                                           mm       mm  degC.day    ppm        mm       mm       mm       mm       mm       mm        %       mm       mm        %    ton/ha    ton/ha    ton/ha    ton/ha      days       %        %        %        %        %        %    ton/ha        %       %    ton/ha   ton/ha    kg/m3   ton/ha   ton/ha
   Tot(1)       21        5     2014    487.5    431.0   1802.6   398.82      0.0    484.1      3.4     65.0      0.0    142.6       73    276.4    276.4      100     0.000     0.000     0.000     0.000      164        0       50        0       11        0        0     9.172       44     98.3    9.014   45.072     2.15    0.000    2.336       31       10     2014  Ottawa.PRM
   Tot(2)        1       11     2014    782.1    617.6   2118.6   401.02      0.0    777.8      4.3    194.5      0.0    249.2       77    348.4    348.4      100     0.000     0.000     0.000     0.000      177        0       50        0       11        0        0    11.947       47    100.0   11.947   59.737     2.47    0.280    2.306       24       10     2015  Ottawa.PRM
   Tot(3)       25       10     2015    926.2    653.7   2213.1   404.41      0.0    906.2     20.0    360.0      0.0    243.3       67    351.9    351.9      100     0.000     0.000     0.000     0.000      175        0       50        0       12        1        0    12.579       48    100.0   12.579   62.893     2.67    1.384    2.467       28       10     2016  Ottawa.PRM
