AquaCrop 7.2 (August 2024) - Output created on (date) : 30-09-2024   at (time) : 15:56:02
Biomass and Yield at Multiple cuttings

   Run:   1
    Nr   Day  Month Year   DAP Interval  Biomass    Sum(B)   Dry-Yield  Sum(Y) Fresh-Yield  Sum(Y)
                                 days     ton/ha    ton/ha    ton/ha    ton/ha    ton/ha    ton/ha
     0    21     5  2014                             0.000               0.000               0.000
     1    13     7  2014    54    54       4.787     4.787     4.629     4.629    23.143    23.143
     2    31     8  2014   103    49       3.082     7.869     3.082     7.711    15.409    38.553
  9999     1    11  2014                             9.172               9.014              45.072

   Run:   2
    Nr   Day  Month Year   DAP Interval  Biomass    Sum(B)   Dry-Yield  Sum(Y) Fresh-Yield  Sum(Y)
                                 days     ton/ha    ton/ha    ton/ha    ton/ha    ton/ha    ton/ha
     0     1     5  2015                             0.000               0.000               0.000
     1    20     6  2015    51   232       5.693     5.693     5.693     5.693    28.466    28.466
     2    26     7  2015    87    36       3.443     9.136     3.443     9.136    17.215    45.682
     3    30     8  2015   122    35       1.626    10.762     1.626    10.762     8.128    53.810
  9999    25    10  2015                            11.947              11.947              59.737

   Run:   3
    Nr   Day  Month Year   DAP Interval  Biomass    Sum(B)   Dry-Yield  Sum(Y) Fresh-Yield  Sum(Y)
                                 days     ton/ha    ton/ha    ton/ha    ton/ha    ton/ha    ton/ha
     0     7     5  2016                             0.000               0.000               0.000
     1    15     6  2016    40   235       5.059     5.059     5.059     5.059    25.297    25.297
     2    20     7  2016    75    35       3.815     8.874     3.815     8.874    19.073    44.370
     3    29     8  2016   115    40       2.283    11.157     2.283    11.157    11.414    55.784
  9999    29    10  2016                            12.579              12.579              62.893
