AquaCrop 7.3 (January 2026) - Output created on (date) : 27-01-2026   at (time) : 14:34:45
Biomass and Yield at Multiple cuttings

   Run:   1
    Nr   Day  Month Year   DAP Interval  Biomass    Sum(B)   Dry-Yield  Sum(Y) Fresh-Yield  Sum(Y)
                                 days     ton/ha    ton/ha    ton/ha    ton/ha    ton/ha    ton/ha
     0    21     5  2014                             0.000               0.000               0.000
     1    13     7  2014    54    54       4.780     4.780     4.622     4.622    23.111    23.111
     2    31     8  2014   103    49       3.066     7.846     3.066     7.688    15.330    38.441
  9999     1    11  2014                             9.148               8.990              44.952

   Run:   2
    Nr   Day  Month Year   DAP Interval  Biomass    Sum(B)   Dry-Yield  Sum(Y) Fresh-Yield  Sum(Y)
                                 days     ton/ha    ton/ha    ton/ha    ton/ha    ton/ha    ton/ha
     0     1     5  2015                             0.000               0.000               0.000
     1    20     6  2015    51   232       5.686     5.686     5.686     5.686    28.428    28.428
     2    26     7  2015    87    36       3.431     9.117     3.431     9.117    17.156    45.584
     3    30     8  2015   122    35       1.608    10.725     1.608    10.725     8.042    53.626
  9999    25    10  2015                            11.909              11.909              59.545

   Run:   3
    Nr   Day  Month Year   DAP Interval  Biomass    Sum(B)   Dry-Yield  Sum(Y) Fresh-Yield  Sum(Y)
                                 days     ton/ha    ton/ha    ton/ha    ton/ha    ton/ha    ton/ha
     0     7     5  2016                             0.000               0.000               0.000
     1    15     6  2016    40   235       5.049     5.049     5.049     5.049    25.247    25.247
     2    20     7  2016    75    35       3.806     8.856     3.806     8.856    19.031    44.279
     3    29     8  2016   115    40       2.268    11.123     2.268    11.123    11.338    55.617
  9999    29    10  2016                            12.539              12.539              62.694
