AquaCrop 7.1 (August 2023) - Output created on (date) : 08-08-2023   at (time) : 14:35:35

    RunNr     Day1   Month1    Year1     Rain      ETo       GD     CO2      Irri   Infilt   Runoff    Drain   Upflow        E     E/Ex       Tr      TrW   Tr/Trx    SaltIn   SaltOut    SaltUp  SaltProf     Cycle   SaltStr  FertStr  WeedStr  TempStr   ExpStr   StoStr  BioMass  Brelative   HI    Y(dry)  Y(fresh)    WPet      Bin     Bout     DayN   MonthN    YearN
                                           mm       mm  degC.day    ppm        mm       mm       mm       mm       mm       mm        %       mm       mm        %    ton/ha    ton/ha    ton/ha    ton/ha      days       %        %        %        %        %        %    ton/ha        %       %    ton/ha   ton/ha    kg/m3   ton/ha   ton/ha
   Tot(1)       21        5     2014    487.5    431.0   1802.6   398.81      0.0    484.1      3.4     65.0      0.0    142.7       73    276.2    276.2      100     0.000     0.000     0.000     0.000      164        0       50        0       11        0        0     9.319       45     98.3    9.161   45.807     2.19    0.000    2.398       31       10     2014  Ottawa.PRM
   Tot(2)        1       11     2014    782.1    617.6   2118.6   401.01      0.0    777.8      4.3    194.5      0.0    248.9       77    348.8    348.8      100     0.000     0.000     0.000     0.000      177        0       50        0       11        0        0    11.841       46    100.0   11.841   59.206     2.44    0.288    2.287       24       10     2015  Ottawa.PRM
   Tot(3)       25       10     2015    926.2    653.7   2213.1   404.41      0.0    906.2     20.0    359.9      0.0    243.2       67    352.1    352.1      100     0.000     0.000     0.000     0.000      175        0       50        0       12        1        0    12.466       48    100.0   12.466   62.332     2.65    1.372    2.443       28       10     2016  Ottawa.PRM
